/*--------------------------------*- C++ -*----------------------------------*\
| =========                 |                                                 |
| \\      /  F ield         | OpenFOAM: The Open Source CFD Toolbox           |
|  \\    /   O peration     | Version:  2.3.0                                 |
|   \\  /    A nd           | Web:      www.OpenFOAM.org                      |
|    \\/     M anipulation  |                                                 |
\*---------------------------------------------------------------------------*/
FoamFile
{
    version     2.0;
    format      ascii;
    class       dictionary;
    location    "constant";
    object      speciesMu;
}

C2H4 {
Mu1   -3.03274068e-03;
Mu2   1.21836221e-03;
Mu3   -8.84360739e-05;
Mu4   -3.32250976e-06;
Mu5   4.52062979e-07;
}
H2 {
Mu1   -3.28623516e-04;
Mu2   4.74029443e-04;
Mu3   -8.85233901e-05;
Mu4   8.18800038e-06;
Mu5   -2.77511685e-07;
}
H {
Mu1   -5.09432331e-03;
Mu2   2.81161916e-03;
Mu3   -5.13261552e-04;
Mu4   4.25106381e-05;
Mu5   -1.31528007e-06;
}
O2 {
Mu1   -6.18642807e-03;
Mu2   3.61882451e-03;
Mu3   -6.86198340e-04;
Mu4    5.91601271e-05;
Mu5   -1.90497718e-06;
}
O {
Mu1   -4.93602341e-03;
Mu2   3.09432639e-03;
Mu3   -6.00128303e-04;
Mu4   5.31827013e-05;
Mu5   -1.75735763e-06;
}
H2O {
Mu1   9.49519633e-03;
Mu2   -4.97440062e-03;
Mu3   9.71984568e-04;
Mu4   -7.63468726e-05;
Mu5   2.07412018e-06;
}
CO {
Mu1   -5.21608145e-03;
Mu2   3.11119967e-03;
Mu3   -5.93952979e-04;
Mu4   5.16231338e-05;
Mu5   -1.67490406e-06;
}
CO2 {
Mu1   -2.70604223e-03;
Mu2   9.96089135e-04;
Mu3   -3.24575929e-05;
Mu4   -9.15207993e-06;
Mu5   6.71617814e-07;
}
OH {
Mu1   -5.01199846e-03;
Mu2   3.14195413e-03;
Mu3   -6.09365451e-04;
Mu4   5.40012871e-05;
Mu5   -1.78440680e-06;
}
HCO {
Mu1   1.95238964e-02;
Mu2   -1.15779252e-02;
Mu3   2.57713658e-03;
Mu4   -2.46960963e-04;
Mu5   8.72122485e-06;
}
HO2 {
Mu1   -6.23458404e-03;
Mu2   3.64699391e-03;
Mu3   -6.91539798e-04;
Mu4   5.96206373e-05;
Mu5   -1.91980577e-06;
}
H2O2 {
Mu1   -6.28164930e-03;
Mu2   3.67452530e-03;
Mu3   -6.96760275e-04;
Mu4   6.00707171e-05;
Mu5   -1.93429850e-06;
}
C2H3 {
Mu1   -7.23325726e-04;
Mu2   -1.23373748e-04;
Mu3   1.92037164e-04;
Mu4   -2.92208759e-05;
Mu5   1.34121855e-06;
}
C2H2 {
Mu1   -7.16489873e-04;
Mu2   -1.22207794e-04;
Mu3   1.90222300e-04;
Mu4   -2.89447214e-05;
Mu5   1.32854325e-06;
}
CH4 {
Mu1   -5.57171061e-03;
Mu2   3.09038965e-03;
Mu3   -5.67059012e-04;
Mu4   4.72115090e-05;
Mu5   -1.46869041e-06;
}
CH3 {
Mu1   -5.40738570e-03;
Mu2   2.98862758e-03;
Mu3   -5.46454675e-04;
Mu4   4.53335788e-05;
Mu5    -1.40503732e-06;
}
CH2 {
Mu1   -5.31438103e-03;
Mu2   2.93722449e-03;
Mu3   -5.37055894e-04;
Mu4   4.45538610e-05;
Mu5   -1.38087130e-06;
}
CH2O {
Mu1   1.96912821e-02;
Mu2   -1.16771871e-02;
Mu3   2.59923134e-03;
Mu4   -2.49078253e-04;
Mu5   8.79599522e-06;
}
CH2CHO {
Mu1   1.52683489e-02;
Mu2   -9.27077861e-03;
Mu3   2.11800368e-03;
Mu4   -2.06943520e-04;
Mu5   7.42838670e-06;
}
N2 {
Mu1   -5.23250346e-03;
Mu2   3.12498112e-03;
Mu3   -5.96885724e-04;
Mu4   5.19083970e-05;
Mu5   -1.68509894e-06;
}
