/*--------------------------------*- C++ -*----------------------------------*\
  =========                 |
  \\      /  F ield         | OpenFOAM: The Open Source CFD Toolbox
   \\    /   O peration     | Website:  https://openfoam.org
    \\  /    A nd           | Version:  7
     \\/     M anipulation  |
\*---------------------------------------------------------------------------*/
FoamFile
{
    version     2.0;
    format      ascii;
    class       polyBoundaryMesh;
    location    "constant/polyMesh";
    object      boundary;
}
// * * * * * * * * * * * * * * * * * * * * * * * * * * * * * * * * * * * * * //

4
(
    f_frontAndBack
    {
        type            empty;
        physicalType    empty;
        nFaces          16;
        startFace       28;
    }
    s_frontAndBack
    {
        type            empty;
        physicalType    empty;
        nFaces          16;
        startFace       44;
    }
    f_side
    {
        type            patch;
        physicalType    patch;
        nFaces          4;
        startFace       60;
    }
    s_side
    {
        type            patch;
        physicalType    patch;
        nFaces          4;
        startFace       64;
    }
)

// ************************************************************************* //
