/*--------------------------------*- C++ -*----------------------------------*\
  =========                 |
  \\      /  F ield         | OpenFOAM: The Open Source CFD Toolbox
   \\    /   O peration     | Website:  https://openfoam.org
    \\  /    A nd           | Version:  7
     \\/     M anipulation  |
\*---------------------------------------------------------------------------*/
FoamFile
{
    version     2.0;
    format      ascii;
    class       dictionary;
    location    "system";
    object      controlDict;
}
// * * * * * * * * * * * * * * * * * * * * * * * * * * * * * * * * * * * * * //

application     reactingFoam;

startFrom       latestTime;
/*startFrom       startTime;*/

startTime       0;

stopAt          endTime;
//stopAt          writeNow;

endTime         50;

deltaT          5e-5;

writeControl    adjustableRunTime;
/*writeControl    timeStep;*/

writeInterval   5e-2;
/*writeInterval   100;*/

purgeWrite      0;

/*writeFormat     binary;*/
writeFormat     ascii;

writePrecision  15;

writeCompression off;

timeFormat      fixed;
/*timeFormat      general;*/

timePrecision   6;

runTimeModifiable true;

adjustTimeStep  yes;

maxCo           1.0;



adjustStartTime 0;

maxDeltaT   1.0e-4; // reduce it if the surface temperature starts oscilliating

minDeltaT   1e-6;

REVlength   1e3;

minChemDeltaT   1e-6; // Minimum time step for species equation

dYtolMin    0.05; // Min variation of mass fractions in species equation
dYtolMax    0.1; // Max
Ythreshold  0.001; // Species below this mass fraction are ignored for the time step optimization
/* End adjustable time step */

// For cfd coupled simulation, allow the flow to adjust to the solid temperature
delaySolid 2; // time in seconds


functions
{
    probes_sym
    {
       // Type of functionObject
       type probes;

       // Where to load it from (if not already in solver)
       functionObjectLibs ("libsampling.so");
       writeControl   timeStep;
       writeInterval  5;

       region flow;

      // Fields to be probed. runTime modifiable!
       fields (T);

       // Locations to be probed. runTime modifiable!
       probeLocations
       (
       ( 0.0001 0.105 0.0)
       ); 
    }
    
/*    line*/
/*    {*/
/*        type            sets;*/
/*        functionObjectLibs ("libsampling.so");*/
/*        enabled         true;*/
/*        writeControl   timeStep;*/
/*        writeInterval  10;*/

/*        region flow;*/

/*        interpolationScheme cellPoint;*/
/*        setFormat       raw;*/
/*        sets*/
/*        (*/
/*            line1*/
/*            {*/
/*                type lineUniform;*/
/*                axis distance;*/
/*                start ( 1e-5 0.105 0 );*/
/*                end   ( 0.05 0.105 0 );*/
/*                nPoints 10;*/
/*            }*/
/*        );*/
/*        fields ( p T );*/
/*    }*/
}

// ************************************************************************* //
