/*--------------------------------*- C++ -*----------------------------------*\
| =========                 |                                                 |
| \\      /  F ield         | OpenFOAM: The Open Source CFD Toolbox           |
|  \\    /   O peration     | Version:  2.1.x                                 |
|   \\  /    A nd           | Web:      www.OpenFOAM.org                      |
|    \\/     M anipulation  |                                                 |
\*---------------------------------------------------------------------------*/
FoamFile {
  version     2.0;
  format      ascii;
  class       dictionary;
  location    "system";
  object      controlDict;
}
// * * * * * * * * * * * * * * * * * * * * * * * * * * * * * * * * * * * * * //

application     PATOx;

/*startFrom       startTime;*/
startFrom       latestTime;

startTime       0;

stopAt          endTime;
/*stopAt          nextWrite;*/

endTime         3600;

writeControl    adjustableRunTime;

writeInterval   1;

purgeWrite      0;

writeFormat     binary;

writePrecision  12;

writeCompression uncompressed;

timeFormat      general;

timePrecision   6;

graphFormat     xmgr;

runTimeModifiable yes;

/* Adjustable time step - based on a limiter on the max. pressure gradient and on species mass-fraction variations */
adjustTimeStep  yes; // you can turn it off but it's going to be very slow

adjustStartTime 0;

maxCo           10;

deltaT          1e-6;

maxDeltaT   1e-2; // reduce it if the surface temperature starts oscilliating

minDeltaT   2e-4;

REVlength   1e3; // XXX ???

minChemDeltaT   1e-7; // Minimum time step for species equation

dYtolMin    0.05; // Min variation of mass fractions in species equation
dYtolMax    0.15; // Max
Ythreshold  0.001; // Species below this mass fraction are ignored for the time step optimization
/* End adjustable time step */

// For cfd coupled simulation, allow the flow to adjust to the solid temperature
delaySolid 0; // time in seconds


// ************************************************************************* //
