/*--------------------------------*- C++ -*----------------------------------*\
| =========                 |                                                 |
| \\      /  F ield         | OpenFOAM: The Open Source CFD Toolbox           |
|  \\    /   O peration     | Version:  2.3.0                                 |
|   \\  /    A nd           | Web:      www.OpenFOAM.org                      |
|    \\/     M anipulation  |                                                 |
\*---------------------------------------------------------------------------*/
FoamFile
{
    version     2.0;
    format      ascii;
    class       dictionary;
    location    "constant";
    object      speciesMu;
}

C2H4 {
Mu1   -3.03274068e-03;
Mu2   1.21836221e-03;
Mu3   -8.84360739e-05;
Mu4   -3.32250976e-06;
Mu5   4.52062979e-07;
}
H2 {
Mu1   -3.28623516e-04;
Mu2   4.74029443e-04;
Mu3   -8.85233901e-05;
Mu4   8.18800038e-06;
Mu5   -2.77511685e-07;
}
O2 {
Mu1   -6.18642807e-03;
Mu2   3.61882451e-03;
Mu3   -6.86198340e-04;
Mu4    5.91601271e-05;
Mu5   -1.90497718e-06;
}
H2O {
Mu1   9.49519633e-03;
Mu2   -4.97440062e-03;
Mu3   9.71984568e-04;
Mu4   -7.63468726e-05;
Mu5   2.07412018e-06;
}
CO {
Mu1   -5.21608145e-03;
Mu2   3.11119967e-03;
Mu3   -5.93952979e-04;
Mu4   5.16231338e-05;
Mu5   -1.67490406e-06;
}
CO2 {
Mu1   -2.70604223e-03;
Mu2   9.96089135e-04;
Mu3   -3.24575929e-05;
Mu4   -9.15207993e-06;
Mu5   6.71617814e-07;
}
N2 {
Mu1   -5.23250346e-03;
Mu2   3.12498112e-03;
Mu3   -5.96885724e-04;
Mu4   5.19083970e-05;
Mu5   -1.68509894e-06;
}
