/*--------------------------------*- C++ -*----------------------------------*\
| =========                 |                                                 |
| \\      /  F ield         | OpenFOAM: The Open Source CFD Toolbox           |
|  \\    /   O peration     | Version:  2.3.0                                 |
|   \\  /    A nd           | Web:      www.OpenFOAM.org                      |
|    \\/     M anipulation  |                                                 |
\*---------------------------------------------------------------------------*/
FoamFile
{
    version     2.0;
    format      ascii;
    class       dictionary;
    location    "constant";
    object      speciesLambda;
}

C2H4
{
Lambda1  0.23844120988982623;
Lambda2  -0.12796878999453964;
Lambda3  0.024575111608409306;
Lambda4  -0.001974356645270854;
Lambda5  5.668944251373442e-05;
}
H2
{
Lambda1  -0.9677034329275304;
Lambda2  0.5744337660301296;
Lambda3  -0.1257371151346395;
Lambda4  0.012123569772945523;
Lambda5  -0.0004317820757895341;
}
O2
{
Lambda1  0.10689552101630528;
Lambda2  -0.06376711343770658;
Lambda3  0.014217756178712414;
Lambda4  -0.0013908411531386269;
Lambda5  5.09174438888175e-05;
}
H2O
{
Lambda1  -0.40448952246523034;
Lambda2  0.2516652858409429;
Lambda3  -0.058238000281090274;
Lambda4  0.005930903658809399;
Lambda5  -0.0002223375428685012;
}
CO
{
Lambda1  0.040600294618875724;
Lambda2  -0.020985470902516234;
Lambda3  0.004001373353088539;
Lambda4  -0.00032019801523515716;
Lambda5  9.270576537591034e-06;
}
CO2
{
Lambda1  0.08710886466592467;
Lambda2  -0.05136577647305578;
Lambda3  0.011079892418450574;
Lambda4  -0.001029106462773587;
Lambda5  3.531690263249683e-05;
}
N2
{
Lambda1  0.0026129214099176513;
Lambda2  0.0015932386446981589;
Lambda3  -0.000984277527739843;
Lambda4  0.00016507154037197712;
Lambda5  -8.297315315373045e-06;
}
	
