/*--------------------------------*- C++ -*----------------------------------*\
  =========                 |
  \\      /  F ield         | OpenFOAM: The Open Source CFD Toolbox
   \\    /   O peration     | Website:  https://openfoam.org
    \\  /    A nd           | Version:  7
     \\/     M anipulation  |
\*---------------------------------------------------------------------------*/
FoamFile
{
    version     2.0;
    format      ascii;
    class       volScalarField;
    location    "0/fluid";
    object      N2;
}
// * * * * * * * * * * * * * * * * * * * * * * * * * * * * * * * * * * * * * //

dimensions      [0 0 0 0 0 0 0];

internalField   uniform 0.79;

boundaryField
{
    fuel
    {
        type            fixedValue;
        value           uniform 0.75;
    }

    shield
    {
        type            fixedValue;
        value           uniform 1.0;
    }

    outlet
    {
        type            zeroGradient;
    }

    burner
    {
        type            zeroGradient;
    }

    f_front
    {
        type            wedge;
    }

    f_back
    {
        type            wedge;
    }

    wall
    {
        type            zeroGradient;
    }
}


// ************************************************************************* //
