/*--------------------------------*- C++ -*----------------------------------*\
| =========                 |                                                 |
| \\      /  F ield         | OpenFOAM: The Open Source CFD Toolbox           |
|  \\    /   O peration     | Version:  dev                                   |
|   \\  /    A nd           | Web:      http://www.openfoam.org               |
|    \\/     M anipulation  |                                                 |
\*---------------------------------------------------------------------------*/
FoamFile {
  version         4.0;
  format          ascii;
  class           dictionary;
  location        system/porousMat;
  object          plotDict;
}

// * * * * * * * * * * * * * * * * * * * * * * * * * * * * * * * * * * * * //

type sets;
libs ("libsampling.so");

interpolationScheme cellPoint;

setFormat         raw;
surfaceFormat     raw;

sets
(
plot {
  type            points;
  ordered on;
  axis            xyz;
  points   (
       ( 0.0158652 0.1100 0.0)
       ( 0.0158652 0.1105 0.0)
       ( 0.0158652 0.1110 0.0)
       ( 0.0158652 0.1115 0.0)
       ( 0.0000000 0.121905 0.0)
       ( 0.0025000 0.121905 0.0)
       ( 0.0050000 0.121905 0.0)
       ( 0.0075000 0.121905 0.0)
       ( 0.0100000 0.121905 0.0)
       ( 0.0125000 0.121905 0.0)
       ( 0.0150000 0.121905 0.0)
       ( 0.0158652 0.121905 0.0)
  );
}
);


fields
(
    Ta
    tau
);

// *********************************************************************** //
