/*--------------------------------*- C++ -*----------------------------------*\
  =========                 |
  \\      /  F ield         | OpenFOAM: The Open Source CFD Toolbox
   \\    /   O peration     | Website:  https://openfoam.org
    \\  /    A nd           | Version:  7
     \\/     M anipulation  |
\*---------------------------------------------------------------------------*/
FoamFile
{
    version     2.0;
    format      ascii;
    class       dictionary;
    location    "system";
    object      controlDict;
}
// * * * * * * * * * * * * * * * * * * * * * * * * * * * * * * * * * * * * * //

application     reactingDNS;

startFrom       latestTime;
/*startFrom       startTime;*/

startTime       0;

stopAt          endTime;

endTime         1e-2;

deltaT          1e-7;

// either maxCo or maxDeltaT, not both 
//maxCo           0.4;
maxDeltaT       2.5e-8;

adjustTimeStep  yes;

writeControl    adjustableRunTime;
writeInterval   1e-4;

//writeControl    timeStep;
//writeInterval   10;

purgeWrite      0;

writeFormat     ascii; //binary;

writePrecision  12;

writeCompression off;

timeFormat      fixed;

timePrecision   6;

runTimeModifiable true;

// ************************************************************************* //
