/*--------------------------------*- C++ -*----------------------------------*\
  =========                 |
  \\      /  F ield         | OpenFOAM: The Open Source CFD Toolbox
   \\    /   O peration     | Website:  https://openfoam.org
    \\  /    A nd           | Version:  7
     \\/     M anipulation  |
\*---------------------------------------------------------------------------*/
FoamFile
{
    version     2.0;
    format      ascii;
    class       dictionary;
    location    "system";
    object      fvSolution;
}
// * * * * * * * * * * * * * * * * * * * * * * * * * * * * * * * * * * * * * //

solvers
{
    "rho.*"
    {
        solver          diagonal;
    }

    p_rgh
    {
        solver           PCG;
        preconditioner   DIC;
        tolerance        1e-15;
        relTol           1e-7;
    }

    p_rghFinal
    {
        $p_rgh;
        tolerance        1e-15;
        relTol           0;
    }  

    "(U|h|e|he)"
    {
        solver          PBiCGStab;
        preconditioner  DILU;
        tolerance       1e-15;
        relTol          1e-7;
    }

    "(U|h|e|he)Final"
    {
        $U;
        relTol          0;
    }

    "Yi"
    {
        solver          PBiCGStab;
        preconditioner  DILU;
        tolerance       1e-15;
        relTol          1e-7;
    }

    "YiFinal"
    {
        $Yi;
        relTol          0;
    }
}

PIMPLE
{
    nOuterCorrectors  1;
    nCorrectors     3;
    nNonOrthogonalCorrectors 2;//0;
    momentumPredictor on;//yes;
}

/*
relaxationFactors
{
    equations
    {
        ".*"            1;
    }
}
*/

// ************************************************************************* //
