/*--------------------------------*- C++ -*----------------------------------*\
  =========                 |
  \\      /  F ield         | OpenFOAM: The Open Source CFD Toolbox
   \\    /   O peration     | Website:  https://openfoam.org
    \\  /    A nd           | Version:  7
     \\/     M anipulation  |
\*---------------------------------------------------------------------------*/
FoamFile
{
    version     2.0;
    format      ascii;
    class       dictionary;
    location    "system";
    object      controlDict;
}
// * * * * * * * * * * * * * * * * * * * * * * * * * * * * * * * * * * * * * //

application     reactingDNS;

startFrom       latestTime;
/*startFrom       startTime;*/

startTime       0;

stopAt          endTime;

endTime         50e-8;

deltaT          1e-9;

writeControl    timeStep;
writeInterval   100;

purgeWrite      0;

writeFormat     binary;

writePrecision  12;

writeCompression off;

timeFormat      fixed;

timePrecision   7;

runTimeModifiable true;

functions
{
    myProbes
    {
       // Type of functionObject
       type probes;

       // Where to load it from (if not already in solver)
       functionObjectLibs ("libsampling.so");
       writeControl   timeStep;
       writeInterval  1;

       //region flow;

       // Fields to be probed. runTime modifiable!
       fields (T p C2H4 N2 O2 H2 H2O DiffC2H4 DiffN2 DiffO2 DiffH2 DiffH2O omegaDotC2H4 omegaDotN2 omegaDotN2 omegaDotH2 omegaDotH2O mixMu mixAlpha chemistryhsSource);

       // Locations to be probed. runTime modifiable!
       probeLocations
       (
       ( 0.0 0.0 0.0)
       ); 
    }
}

// ************************************************************************* //
