/*--------------------------------*- C++ -*----------------------------------*\
| =========                 |                                                 |
| \\      /  F ield         | OpenFOAM: The Open Source CFD Toolbox           |
|  \\    /   O peration     | Version:  2.3.1                                 |
|   \\  /    A nd           | Web:      www.OpenFOAM.org                      |
|    \\/     M anipulation  |                                                 |
\*---------------------------------------------------------------------------*/
FoamFile {
  version     2.0;
  format      ascii;
  class       dictionary;
  object      fvSolution;
}
// * * * * * * * * * * * * * * * * * * * * * * * * * * * * * * * * * * * * * //

solvers {

  "rho.*"
  {
    solver          diagonal;
  }

  p_rgh
  {
    solver           PCG;
    preconditioner   DIC;
    tolerance        1e-12;
    relTol           1e-6;
  }

  p_rghFinal
  {
    $p_rgh;
    tolerance        1e-12;
    relTol           0;
  }

  "(U|e|h|Yi)"
  {
    solver           PBiCGStab;
    preconditioner   DILU;
    tolerance        1e-12;
    relTol           1e-6;
  }

  "(U|e|h|Yi)Final"
  {
    $U;
    tolerance        1e-12;
    relTol           0;
  }

}

PIMPLE {
  momentumPredictor   yes;
  nCorrectors         1;
  nOuterCorrectors    2;
  nNonOrthogonalCorrectors 0;
}

/*
relaxationFactors {
  fields
  {
  }
  equations
  {
    "e.*"             0.5;
    "U.*"             0.5;
    "Yi.*"            0.5;
  }
}
*/

// ************************************************************************* //
