/*--------------------------------*- C++ -*----------------------------------*\
| =========                 |                                                 |
| \\      /  F ield         | OpenFOAM: The Open Source CFD Toolbox           |
|  \\    /   O peration     | Version:  5.0                                   |
|   \\  /    A nd           | Web:      www.OpenFOAM.org                      |
|    \\/     M anipulation  |                                                 |
\*---------------------------------------------------------------------------*/
FoamFile {
  version     4.0;
  format      ascii;
  class       dictionary;
  location    "constant/porousMat";
  object      porousMatProperties;
}

// * * * * * * * * * * * * * * * * * * * * * * * * * * * * * * * * * * * * * //

/****************************** GENERAL ************************************/
debug           no;
movingMesh      no;
/****************************** end GENERAL ********************************/

/****************************** IO *****************************************/
IO {
  writeFields (); // write fields in the time folders
  probingFunctions (); // name of sampling/probing dictionaries in "system/porousMat"
}
/****************************** END IO ************************************/

/****************************** MASS, ENERGY, PYROLYSIS *******************/
MaterialProperties {
  MaterialPropertiesType Porous; // porous material properties
  MaterialPropertiesDirectory "$PATO_DIR/data/Materials/Composites/CarbonFiberPreform"; // material properties file
  detailedSolidEnthalpies yes;
}

Pyrolysis {
  PyrolysisType LinearArrhenius; // PATO pyrolysis
/*  PyrolysisType virgin; // PATO pyrolysis*/
}

Mass {
/*  MassType DarcyLaw; // Solve the semi implicit pressure equation*/
  MassType DarcyLaw_Heterogeneous; // Solve the semi implicit pressure equation in cluding heterogeneous reactions
}

Energy {
  EnergyType Pyrolysis_Heterogeneous_SpeciesDiffusion; // Solve the temperature equation
}

SolidMechanics {
  SolidMechanicsType  no; //SolidDisplacement
}
/****************************** END MASS, ENERGY, PYROLYSIS ****************/

/****************************** GAS PROPERTIES  ************************************/
GasProperties {
  GasPropertiesType FiniteRate;
  mixture Carbon_oxidation_species;
/*  GasPropertiesType Tabulated; // tabulated gas properties*/
/*  GasPropertiesFile "$PATO_DIR/data/Materials/Composites/TACOT_noPyrolysis/gasProperties"; // tabulated gas properties file*/
}
/****************************** END GAS PROPERTIES **************************/

/****************************** MaterialChemistry  **********************************/
MaterialChemistry {
  MaterialChemistryType SpeciesConservation;
  mixture Carbon_oxidation_species; // Mutation++ mixture in "$PATO_DIR/data/ThermoTransportChemistry/mutation++/mixtures"
}
/****************************** END MaterialChemistry  ******************************/

/****************************** VOLUME ABLATION  **********************************/
VolumeAblation {
  VolumeAblationType FibrousMaterialTypeA; // Cylindrical fiber shrinking, fibrous material type A
}
/****************************** END VOLUME ABLATION  ******************************/

/****************************** TIME CONTROL  **********************************/
TimeControl {
  TimeControlType GradP_ChemYEqn; // change the integration time step in function of the gradient of the pressure and the species mass fractions
  chemTransEulerStepLimiter no;
}
/****************************** END TIME CONTROL  ******************************/
