/*--------------------------------*- C++ -*----------------------------------*\
| =========                 |                                                 |
| \\      /  F ield         | OpenFOAM: The Open Source CFD Toolbox           |
|  \\    /   O peration     | Version:  5.0                                   |
|   \\  /    A nd           | Web:      www.OpenFOAM.org                      |
|    \\/     M anipulation  |                                                 |
\*---------------------------------------------------------------------------*/
FoamFile {
  version     4.0;
  format      ascii;
  class       dictionary;
  location    "constant/porousMat";
  object      porousMatProperties;
}

// * * * * * * * * * * * * * * * * * * * * * * * * * * * * * * * * * * * * * //

/****************************** GENERAL ************************************/
//debug yes;
movingMesh      yes;
/****************************** end GENERAL ********************************/

/****************************** IO *****************************************/
IO {
  writeFields (
    tau
    piTotal
    rho_v
    rho_c
    //normFp_sum
    rho_s
    k
    cp
    //pyrolysisFlux
    //M_g
    mu_g
    //h_g
    eps_g
    rho_g
    K
    //vG
    U
    //mDotG
    //mDotGw
    O2
    CO2
    CO
    H2O
    H2
    CH4
    A1
    A1OH
    N2
    rT
    Xsi[2][1]
    Xsi[2][2]
    Xsi[2][3]
    //epsI_s[1]
    eps_s[1]
    //rhoI_s[1]
    rho_s[1]
    //epsI_s[2]
    eps_s[2]
    //rhoI_s[2]
    rho_s[2]
    kijk
    k_abl_sym
    //h_bar
    omegaHeterogeneousRate
    //Ediff
    //diffY[A1OH]
    //diffY[A1]
    //diffY[C(gr)]
    //diffY[CH4]
    //diffY[CO2]
    //diffY[CO]
    //diffY[H2O]
    //diffY[H2]
    //diffY[N2]
    //diffY[O2]
); // write fields in the time folders
  probingFunctions (); // name of sampling/probing dictionaries in "system/porousMat"  
  
}
/****************************** END IO ************************************/

/****************************** MASS, ENERGY, PYROLYSIS *******************/
MaterialProperties {
  MaterialPropertiesType Porous; // porous material properties
  MaterialPropertiesDirectory "$PATO_DIR/data/Materials/Composites/TACOT_newChemistry"; // material properties file
  detailedSolidEnthalpies yes;
}

Pyrolysis {
  PyrolysisType LinearArrhenius; // PATO pyrolysis
}

Mass {
  MassType DarcyLaw_Heterogeneous; // Solve the semi implicit pressure equation including heterogeneous reactions
}

Energy {
  EnergyType Pyrolysis_Heterogeneous_SpeciesDiffusion;
}
/****************************** END MASS, ENERGY, PYROLYSIS ****************/

/****************************** GAS PROPERTIES  ************************************/
GasProperties {
  GasPropertiesType FiniteRate; // gas properties for finite-rate chemistry
}
/****************************** END GAS PROPERTIES **************************/

/****************************** MaterialChemistry  **********************************/
MaterialChemistry {
  MaterialChemistryType SpeciesConservation;
  mixture UIUC_7sp_TACOT_oxidation_species; // Mutation++ mixture in "$PATO_DIR/data/ThermoTransportChemistry/mutation++/mixtures"
}
/****************************** END MaterialChemistry  ******************************/

/****************************** VOLUME ABLATION  **********************************/
VolumeAblation {
  VolumeAblationType FibrousMaterialTypeA; // Cylindrical fiber shrinking, fibrous material type A
}
/****************************** END VOLUME ABLATION  ******************************/

/****************************** TIME CONTROL  **********************************/
TimeControl {
  TimeControlType GradP_ChemYEqn; // change the integration time step in function of the gradient of the pressure and the species mass fractions
  chemTransEulerStepLimiter no;
}
/****************************** END TIME CONTROL  ******************************/

