/*--------------------------------*- C++ -*----------------------------------*\
| =========                 |                                                 |
| \\      /  F ield         | OpenFOAM: The Open Source CFD Toolbox           |
|  \\    /   O peration     | Version:  2.3.0                                 |
|   \\  /    A nd           | Web:      www.OpenFOAM.org                      |
|    \\/     M anipulation  |                                                 |
\*---------------------------------------------------------------------------*/
FoamFile
{
    version     2.0;
    format      ascii;
    class       dictionary;
    location    "constant";
    object      speciesLambda;
}

C2H4
{
Lambda1  0.1516722114996983;
Lambda2  -0.07860210748523137;
Lambda3  0.014290216084924496;
Lambda4  -0.0010464178173048189;
Lambda5  2.563141196086154e-05;
}
O2
{
Lambda1  0.12598650427266153;
Lambda2  -0.07518311328175512;
Lambda3  0.016766921358417418;
Lambda4  -0.0016427659417670819;
Lambda5  6.021478803459798e-05;
}
CO2
{
Lambda1  0.07962265205237755;
Lambda2  -0.04684288449951705;
Lambda3  0.010059646806023108;
Lambda4  -0.0009272684995670552;
Lambda5  3.152156715029926e-05;
}
CO
{
Lambda1  0.019692850176581088;
Lambda2  -0.008408796854812764;
Lambda3  0.0011769402488049979;
Lambda4  -3.952915453179799e-05;
Lambda5  -1.1426829318588216e-06;
}
H2O
{
Lambda1  -0.41365967119589636;
Lambda2  0.2571477690904377;
Lambda3  -0.05946237728229246;
Lambda4  0.006051949609315485;
Lambda5  -0.00022680723092550505;
}
H2
{
Lambda1  -1.0486522802869231;
Lambda2  0.6227582150364402;
Lambda3  -0.13650986562279746;
Lambda4  0.013186450260101446;
Lambda5  -0.00047094449908117;
}
A1
{
Lambda1  0.10061900725448986;
Lambda2  -0.05180260010804882;
Lambda3  0.00924847391890267;
Lambda4  -0.0006516604266779477;
Lambda5  1.4629283333655574e-05;
}
A1OH
{
Lambda1  0.14085625783779115;
Lambda2  -0.07988860939264163;
Lambda3  0.016484783192610982;
Lambda4  -0.00146332492364494;
Lambda5  4.784235923103111e-05;
}
CH4
{
Lambda1  0.04484512549511266;
Lambda2  -0.0050072691520897175;
Lambda3  -0.004039777401582185;
Lambda4  0.0009220656493502318;
Lambda5  -5.091334113779019e-05;
}
C
{
Lambda1  0.03229642066375594;
Lambda2  -0.021052699570627505;
Lambda3  0.005293946005126282;
Lambda4  -0.0005754630176148854;
Lambda5  2.3284896241538682e-05;
}
N2
{
Lambda1  -0.02161326479517225;
Lambda2  0.01615234209353248;
Lambda3  -0.004250819667144769;
Lambda4  0.000489368488268477;
Lambda5  -2.0318035158632357e-05;
}
