/*--------------------------------*- C++ -*----------------------------------*\
  =========                 |
  \\      /  F ield         | OpenFOAM: The Open Source CFD Toolbox
   \\    /   O peration     | Website:  https://openfoam.org
    \\  /    A nd           | Version:  7
     \\/     M anipulation  |
\*---------------------------------------------------------------------------*/
FoamFile
{
    version     2.0;
    format      ascii;
    class       volScalarField;
    location    "0";
    object      p;
}
// * * * * * * * * * * * * * * * * * * * * * * * * * * * * * * * * * * * * * //

dimensions      [1 -1 -2 0 0 0 0];

internalField   uniform 100000;

boundaryField
{
    wall
    {
        type            zeroGradient;
    }
    frontAndBack
    {
        type            zeroGradient;
    }
    outlet
    {
        type            waveTransmissive;
        value           uniform 100000;    //important for correct I/O
        field           p;                 //the name of the field that we are working on
        gamma           1.4;               //the ratio of specific heats
        phi             phi;               //the name of the volumetric flux field ( or if you use the mass flux phi, it will be divided by rho)
        rho             rho;               //the name of the density field
        psi             thermo:psi;        //the name of the field that is the deriv. of density with respect to pressure
        lInf            1.0;               //a measure of how far away the far-field condition should be
        fieldInf        100000;            //the far-field value to be applied to p
    }
    inlet
    {
        type            zeroGradient;
    }
}


// ************************************************************************* //
