/*--------------------------------*- C++ -*----------------------------------*\
| =========                 |                                                 |
| \\      /  F ield         | OpenFOAM: The Open Source CFD Toolbox           |
|  \\    /   O peration     | Version:  2.1.x                                 |
|   \\  /    A nd           | Web:      www.OpenFOAM.org                      |
|    \\/     M anipulation  |                                                 |
\*---------------------------------------------------------------------------*/
FoamFile {
  version     2.0;
  format      ascii;
  class       dictionary;
  location    "system";
  object      controlDict;
}
// * * * * * * * * * * * * * * * * * * * * * * * * * * * * * * * * * * * * * //

application     PATOx;

startFrom       startTime;

startTime       0;

stopAt          endTime;
/*stopAt          nextWrite;*/

endTime         1.3e-3;

deltaT          1e-8;

maxDeltaT       1e-8; // reduce it if the surface temperature starts oscilliating

minDeltaT       1e-8;

minChemDeltaT   1e-8; // Minimum time step for species equation

writeControl    adjustableRunTime;

writeInterval   1e-2;

purgeWrite      0;

writeFormat     ascii;

writePrecision  12;

writeCompression uncompressed;

timeFormat      fixed;

timePrecision   6;

graphFormat     xmgr;

runTimeModifiable yes;

/* Adjustable time step - based on a limiter on the max. pressure gradient and on species mass-fraction variations */
adjustTimeStep  yes; // you can turn it off but it's going to be very slow

adjustStartTime 0;

maxCo           1;

REVlength   1e3; // XXX ???


dYtolMin    0.05; // Min variation of mass fractions in species equation
dYtolMax    0.15; // Max
Ythreshold  0.000001; // Species below this mass fraction are ignored for the time step optimization


// For cfd coupled simulation, allow the flow to adjust to the solid temperature
delaySolid 10; // time in seconds


functions
{
    probes_flow
    {
       // Type of functionObject
       type probes;

       // Where to load it from (if not already in solver)
       functionObjectLibs ("libsampling.so");
       writeControl   timeStep;
       writeInterval  1;

       region flow;

       // Fields to be probed. runTime modifiable!
       fields (T P C2H4 CO2 H2 H2O O2 H OH C2H2);

       // Locations to be probed. runTime modifiable!
       probeLocations
       (
       ( -0.25 0.25 0.25)
       ( -0.75 -0.25 0.25)
       ); 
    }
}

// ************************************************************************* //
