/*--------------------------------*- C++ -*----------------------------------*\
  =========                 |
  \\      /  F ield         | OpenFOAM: The Open Source CFD Toolbox
   \\    /   O peration     | Website:  https://openfoam.org
    \\  /    A nd           | Version:  7
     \\/     M anipulation  |
\*---------------------------------------------------------------------------*/
FoamFile
{
    version     2.0;
    format      ascii;
    class       dictionary;
    location    "system";
    object      fvSolution;
}
// * * * * * * * * * * * * * * * * * * * * * * * * * * * * * * * * * * * * * //

solvers
{
    "rho.*"
    {
        solver          diagonal;
    }

    p
    {
        solver           PCG;
        preconditioner   DIC;
        tolerance        1e-14;
        relTol           1e-7;
    }

    pFinal
    {
        $p;
        tolerance        1e-14;
        relTol           0.0;
    }

    p_rgh
    {
        $p;
        tolerance        1e-14;
        relTol           1e-7;
    }

    p_rghFinal
    {
        $p;
        tolerance        1e-14;
        relTol           0.0;
    }

    "(U|e|Yi)"
    {
        solver          PBiCGStab;
        preconditioner  DILU;
        tolerance       1e-14;
        relTol          1e-7;
    }

    "(U|e|Yi)Final"
    {
        $U;
        relTol          0;
    }

    "G.*"
    {
        solver          PCG;
        preconditioner  DIC;
        tolerance       1e-7;
        relTol          0.001;
    }

    GFinal
    {
        $G;
        relTol          0;
    }
}

PIMPLE
{
    momentumPredictor yes;
    nOuterCorrectors  1;
    nCorrectors     3;
    nNonOrthogonalCorrectors 2;

/*    maxDeltaT           1e-4;*/
/*    maxCo               0.25;*/
/*    alphaTemp           0.05;*/
/*    alphaY              0.05;*/
/*    Yref*/
/*    {*/
/*        O2                  0.1;*/
/*        CH4                 0.1;*/
/*    }*/
/*    rDeltaTSmoothingCoeff   0.025;*/
/*    rDeltaTDampingCoeff     1;*/
}

relaxationFactors
{
    equations
    {
        ".*"            1;
    }
}


// ************************************************************************* //
