/*--------------------------------*- C++ -*----------------------------------*\
| =========                 |                                                 |
| \\      /  F ield         | OpenFOAM: The Open Source CFD Toolbox           |
|  \\    /   O peration     | Version:  2.3.0                                 |
|   \\  /    A nd           | Web:      www.OpenFOAM.org                      |
|    \\/     M anipulation  |                                                 |
\*---------------------------------------------------------------------------*/
FoamFile
{
    version     2.0;
    format      ascii;
    class       dictionary;
    location    "constant";
    object      binaryDiff;
}

// * * * * * * * * * * * * * * * * * * * * * * * * * * * * * * * * * * * * * //

C2H4-C2H4
{
Diff1  0.0009520538681201244;
Diff2  -0.000968570053636871;
Diff3  0.0002995450791863235;
Diff4  -3.389973858796229e-05;
Diff5  1.356765590728881e-06;
}
H2-C2H4
{
Diff1  -0.010230615407362177;
Diff2  0.005467382116029252;
Diff3  -0.0009907311414494326;
Diff4  8.29497230846285e-05;
Diff5  -2.54329243577055e-06;
}
H2-H2
{
Diff1  -0.006865233575648626;
Diff2  0.004527988362737376;
Diff3  -0.0008654211810269055;
Diff4  7.992970847134335e-05;
Diff5  -2.6377961782787995e-06;
}
H-C2H4
{
Diff1  -0.009192152060229575;
Diff2  0.0030585218861953253;
Diff3  -0.00011911734909055124;
Diff4  -2.2551233644786395e-05;
Diff5  1.8322502375425632e-06;
}
H-H2
{
Diff1  -0.02494681207468867;
Diff2  0.013946115930419296;
Diff3  -0.0026011928734115094;
Diff4  0.00022520946625262844;
Diff5  -7.13154352858658e-06;
}
H-H
{
Diff1  -0.045124959996888286;
Diff2  0.021583165661288133;
Diff3  -0.0034229936881246003;
Diff4  0.00024780816599332626;
Diff5  -6.298684234611228e-06;
}
O2-C2H4
{
Diff1  -0.0024013223967703076;
Diff2  0.0010663257736673304;
Diff3  -0.00014695124315154735;
Diff4  8.724686094313137e-06;
Diff5  -1.443818268249818e-07;
}
O2-H2
{
Diff1  -0.008078545001671938;
Diff2  0.004640788076929539;
Diff3  -0.0008759648030253806;
Diff4  7.705769878334639e-05;
Diff5  -2.473269089069164e-06;
}
O2-H
{
Diff1  -0.01978919058574967;
Diff2  0.009984564215031584;
Diff3  -0.0017087964642707695;
Diff4  0.00013470040249436078;
Diff5  -3.857904702441848e-06;
}
O2-O2
{
Diff1  -0.0031272899371257495;
Diff2  0.0016332321885344269;
Diff3  -0.00029023244731892585;
Diff4  2.3795154191077426e-05;
Diff5  -7.135754459127752e-07;
}
O-C2H4
{
Diff1  -0.004557139410216476;
Diff2  0.002227817396358922;
Diff3  -0.0003656548120601708;
Diff4  2.753993253053718e-05;
Diff5  -7.426760049954737e-07;
}
O-H2
{
Diff1  -0.009169918908815631;
Diff2  0.00542436446437354;
Diff3  -0.0010322095278371874;
Diff4  9.207446814323219e-05;
Diff5  -2.9857817128347404e-06;
}
O-H
{
Diff1  -0.02669027788761092;
Diff2  0.013931611307128697;
Diff3  -0.0024745908346564117;
Diff4  0.00020278396527027511;
Diff5  -6.077989307547116e-06;
}
O-O2
{
Diff1  -0.0045622892688763645;
Diff2  0.0024510841274093574;
Diff3  -0.0004462621814735073;
Diff4  3.755034814735861e-05;
Diff5  -1.1574715957969366e-06;
}
O-O
{
Diff1  -0.006200626242455202;
Diff2  0.0034194563149447833;
Diff3  -0.0006330719706003382;
Diff4  5.431265930458088e-05;
Diff5  -1.7055965618529683e-06;
}
H2O-C2H4
{
Diff1  0.011516970935433973;
Diff2  -0.0071556270381816925;
Diff3  0.0016313334796078955;
Diff4  -0.0001583935865012354;
Diff5  5.6674056722699955e-06;
}
H2O-H2
{
Diff1  -0.009701326278444037;
Diff2  0.004014323899384872;
Diff3  -0.0004679109587932634;
Diff4  1.9380852658722403e-05;
Diff5  9.241023547807315e-08;
}
H2O-H
{
Diff1  0.031782681005767414;
Diff2  -0.021944709939329763;
Diff3  0.005452754910082066;
Diff4  -0.0005578687529710515;
Diff5  2.081257384417445e-05;
}
H2O-O2
{
Diff1  0.004416855007486279;
Diff2  -0.0031775743855664085;
Diff3  0.0008133764546256504;
Diff4  -8.454231010206175e-05;
Diff5  3.1913607821353663e-06;
}
H2O-O
{
Diff1  -0.0005572856088380616;
Diff2  -0.0005667709603532111;
Diff3  0.0003231082930917826;
Diff4  -4.3068136080942354e-05;
Diff5  1.8913297388091361e-06;
}
H2O-H2O
{
Diff1  0.008153691915965825;
Diff2  -0.0039502872622900346;
Diff3  0.0006415133652212911;
Diff4  -3.490182562156911e-05;
Diff5  3.2184246745610446e-07;
}
CO-C2H4
{
Diff1  -0.0025346494284373524;
Diff2  0.0011661183997467668;
Diff3  -0.00017228841977055012;
Diff4  1.1378755357491804e-05;
Diff5  -2.44810376712362e-07;
}
CO-H2
{
Diff1  -0.007285927271290707;
Diff2  0.004223298411101334;
Diff3  -0.0007987477271457576;
Diff4  7.054617033895255e-05;
Diff5  -2.2704437485992294e-06;
}
CO-H
{
Diff1  -0.018348097559784542;
Diff2  0.00934374821913105;
Diff3  -0.0016132230148107236;
Diff4  0.0001283904782971689;
Diff5  -3.7174163148570795e-06;
}
CO-O2
{
Diff1  -0.003009672869056897;
Diff2  0.0015847679011338385;
Diff3  -0.00028341591661372364;
Diff4  2.3400497455366053e-05;
Diff5  -7.068324598269804e-07;
}
CO-O
{
Diff1  -0.004301462587613211;
Diff2  0.002329882348119633;
Diff3  -0.0004266445404172711;
Diff4  3.613291930852209e-05;
Diff5  -1.1209458597519765e-06;
}
CO-H2O
{
Diff1  0.0034801095778208327;
Diff2  -0.00261654567161524;
Diff3  0.0006901368404514886;
Diff4  -7.282721342074574e-05;
Diff5  2.779507883753783e-06;
}
CO-CO
{
Diff1  -0.0029131057507289886;
Diff2  0.0015474779150292225;
Diff3  -0.00027888548678517145;
Diff4  2.321620033567437e-05;
Diff5  -7.074354736449069e-07;
}
CO2-C2H4
{
Diff1  0.0009181952732265521;
Diff2  -0.0008824405554759782;
Diff3  0.00026620970955912955;
Diff4  -2.9830473225475686e-05;
Diff5  1.1862628039855896e-06;
}
CO2-H2
{
Diff1  -0.009335286151716984;
Diff2  0.004977408057966928;
Diff3  -0.0009000585925404341;
Diff4  7.519297228980869e-05;
Diff5  -2.300042056791817e-06;
}
CO2-H
{
Diff1  -0.007754152127278849;
Diff2  0.0024257478524124278;
Diff3  -3.2766185862726113e-05;
Diff4  -2.7588496893405756e-05;
Diff5  1.911824945304809e-06;
}
CO2-O2
{
Diff1  -0.0019538762606366006;
Diff2  0.0008581597928160338;
Diff3  -0.0001155237382061367;
Diff4  6.588031407450016e-06;
Diff5  -9.570226239511786e-08;
}
CO2-O
{
Diff1  -0.00387857138030766;
Diff2  0.0018884328951822647;
Diff3  -0.0003081791030729948;
Diff4  2.3061582051116772e-05;
Diff5  -6.162795831270853e-07;
}
CO2-H2O
{
Diff1  0.011799896789258451;
Diff2  -0.007176547139724081;
Diff3  0.0016046798538747835;
Diff4  -0.0001536151265017002;
Diff5  5.428853321358771e-06;
}
CO2-CO
{
Diff1  -0.0020933310545347633;
Diff2  0.0009551433118463711;
Diff3  -0.00013894323923946435;
Diff4  8.974603118050582e-06;
Diff5  -1.8416952590950704e-07;
}
CO2-CO2
{
Diff1  0.0008536776054310564;
Diff2  -0.0007825552849291938;
Diff3  0.00023088784386152654;
Diff4  -2.5636905937189747e-05;
Diff5  1.0133819725200464e-06;
}
OH-C2H4
{
Diff1  -0.004470309023190466;
Diff2  0.0021853692223308932;
Diff3  -0.0003586877333746095;
Diff4  2.7015194798064033e-05;
Diff5  -7.285252759611259e-07;
}
OH-H2
{
Diff1  -0.009139457743590344;
Diff2  0.005406345497810469;
Diff3  -0.0010287806747270244;
Diff4  9.176860986745408e-05;
Diff5  -2.97586337103169e-06;
}
OH-H
{
Diff1  -0.026643356521013652;
Diff2  0.013907119608531785;
Diff3  -0.00247024051712679;
Diff4  0.00020242747213748986;
Diff5  -6.067304234657098e-06;
}
OH-O2
{
Diff1  -0.004471245658964389;
Diff2  0.002402171063373017;
Diff3  -0.0004373567137188616;
Diff4  3.680100520838933e-05;
Diff5  -1.1343734566262046e-06;
}
OH-O
{
Diff1  -0.006108057939016906;
Diff2  0.00336840771801604;
Diff3  -0.0006236209254989163;
Diff4  5.350183302176779e-05;
Diff5  -1.680133943414325e-06;
}
OH-H2O
{
Diff1  -0.000548468903721082;
Diff2  -0.0005578041893808191;
Diff3  0.00031799646085823745;
Diff4  -4.238676364026507e-05;
Diff5  1.8614073860548128e-06;
}
OH-CO
{
Diff1  -0.004219550975759337;
Diff2  0.002285515016154069;
Diff3  -0.0004185200615264815;
Diff4  3.544484970404791e-05;
Diff5  -1.0995999848798053e-06;
}
OH-CO2
{
Diff1  -0.0037933388795415605;
Diff2  0.0018469341467011473;
Diff3  -0.00030140679619521674;
Diff4  2.2554798465980415e-05;
Diff5  -6.027366971344322e-07;
}
OH-OH
{
Diff1  -0.006014064995814301;
Diff2  0.0033165734756941405;
Diff3  -0.0006140244274269671;
Diff4  5.267852800349187e-05;
Diff5  -1.6542794515407296e-06;
}
HCO-C2H4
{
Diff1  0.006438480744054324;
Diff2  -0.004075644460143526;
Diff3  0.0009444968170159887;
Diff4  -9.272696517567768e-05;
Diff5  3.348930311617664e-06;
}
HCO-H2
{
Diff1  -0.00977354948666333;
Diff2  0.004784293804168399;
Diff3  -0.0007867141241975951;
Diff4  5.937682201046671e-05;
Diff5  -1.6059026895952696e-06;
}
HCO-H
{
Diff1  0.015040351770526808;
Diff2  -0.011140503424520628;
Diff3  0.002909397659221499;
Diff4  -0.00030550481423061117;
Diff5  1.161846056260181e-05;
}
HCO-O2
{
Diff1  0.0005530161251171008;
Diff2  -0.0007124959325135233;
Diff3  0.00023979836465243525;
Diff4  -2.799627830511098e-05;
Diff5  1.1425694337218312e-06;
}
HCO-O
{
Diff1  -0.0013272888250194415;
Diff2  0.00021186495359184742;
Diff3  8.338986871456491e-05;
Diff4  -1.5955102823409383e-05;
Diff5  8.065688520040438e-07;
}
HCO-H2O
{
Diff1  0.016318584352472888;
Diff2  -0.00952456786178405;
Diff3  0.002046263146573973;
Diff4  -0.0001892082471856223;
Diff5  6.47118939783779e-06;
}
HCO-CO
{
Diff1  7.686133458206035e-05;
Diff2  -0.0004241726082550217;
Diff3  0.00017621054027595732;
Diff4  -2.1926515410048614e-05;
Diff5  9.287141121984556e-07;
}
HCO-CO2
{
Diff1  0.005546414281250702;
Diff2  -0.0034992148409895354;
Diff3  0.0008085594716621666;
Diff4  -7.922866698713425e-05;
Diff5  2.856844649427854e-06;
}
HCO-OH
{
Diff1  -0.0013016871723122573;
Diff2  0.00020777835777351282;
Diff3  8.17813880145306e-05;
Diff4  -1.5647349911059903e-05;
Diff5  7.910112015170125e-07;
}
HCO-HCO
{
Diff1  0.01033607908884984;
Diff2  -0.006093109491599892;
Diff3  0.0013222168553829721;
Diff4  -0.00012342381551930524;
Diff5  4.260648659501009e-06;
}
HO2-C2H4
{
Diff1  -0.002384130934784019;
Diff2  0.0010586917720735696;
Diff3  -0.00014589919503240056;
Diff4  8.662224631578881e-06;
Diff5  -1.4334817357891598e-07;
}
HO2-H2
{
Diff1  -0.008071230238483005;
Diff2  0.004636586049734314;
Diff3  -0.000875171655856762;
Diff4  7.69879264644244e-05;
Diff5  -2.471029653914118e-06;
}
HO2-H
{
Diff1  -0.01977995988607853;
Diff2  0.009979906899031814;
Diff3  -0.0017079993934121143;
Diff4  0.00013463757127454265;
Diff5  -3.856105176557561e-06;
}
HO2-O2
{
Diff1  -0.0031033213032470603;
Diff2  0.0016207145310248657;
Diff3  -0.0002880080052590736;
Diff4  2.3612779882855422e-05;
Diff5  -7.081063563969972e-07;
}
HO2-O
{
Diff1  -0.0045390078886350365;
Diff2  0.0024385762353815264;
Diff3  -0.0004439849037904978;
Diff4  3.735872857173391e-05;
Diff5  -1.1515650136492746e-06;
}
HO2-H2O
{
Diff1  0.0021021151307109177;
Diff2  -0.0018281498403585916;
Diff3  0.0005252030760225731;
Diff4  -5.7658032199614234e-05;
Diff5  2.2618777599134024e-06;
}
HO2-CO
{
Diff1  -0.002988144210836108;
Diff2  0.001573431809808491;
Diff3  -0.00028138859847361993;
Diff4  2.3233110056852574e-05;
Diff5  -7.017763772858793e-07;
}
HO2-CO2
{
Diff1  -0.0019365240276617492;
Diff2  0.0008505385381046079;
Diff3  -0.0001144977802880381;
Diff4  6.529523579562417e-06;
Diff5  -9.485233755953191e-08;
}
HO2-OH
{
Diff1  -0.004447487715930472;
Diff2  0.0023894071385897114;
Diff3  -0.00043503282085309585;
Diff4  3.660546323826793e-05;
Diff5  -1.128345968538034e-06;
}
HO2-HCO
{
Diff1  0.0005489853851721734;
Diff2  -0.0007073028003655597;
Diff3  0.00023805055874938583;
Diff4  -2.77922232834713e-05;
Diff5  1.1342416471499518e-06;
}
HO2-HO2
{
Diff1  -0.0030791660999914964;
Diff2  0.0016080994373577782;
Diff3  -0.0002857662483706914;
Diff4  2.342898599171364e-05;
Diff5  -7.025946960476384e-07;
}
H2O2-C2H4
{
Diff1  -0.0023678444694532597;
Diff2  0.0010514596412408478;
Diff3  -0.00014490252905763025;
Diff4  8.603051278662357e-06;
Diff5  -1.423689341304826e-07;
}
H2O2-H2
{
Diff1  -0.0080643429624977;
Diff2  0.0046326295961572755;
Diff3  -0.000874424861557278;
Diff4  7.692223175841828e-05;
Diff5  -2.468921095154256e-06;
}
H2O2-H
{
Diff1  -0.019771272354030468;
Diff2  0.009975523636330735;
Diff3  -0.0017072492250993386;
Diff4  0.0001345784372733676;
Diff5  -3.854411541408047e-06;
}
H2O2-O2
{
Diff1  -0.00308060305221495;
Diff2  0.0016088498879638456;
Diff3  -0.00028589960670053025;
Diff4  2.3439919579816093e-05;
Diff5  -7.029225754125662e-07;
}
H2O2-O
{
Diff1  -0.00451699685165708;
Diff2  0.0024267508336622045;
Diff3  -0.00044183188525111184;
Diff4  3.717756467509114e-05;
Diff5  -1.145980722826736e-06;
}
H2O2-H2O
{
Diff1  0.0020910881859506547;
Diff2  -0.0018185600195946322;
Diff3  0.0005224480483680041;
Diff4  -5.7355578766817345e-05;
Diff5  2.250012757465988e-06;
}
H2O2-CO
{
Diff1  -0.002967748990359258;
Diff2  0.0015626925394120344;
Diff3  -0.00027946801429192295;
Diff4  2.3074535246426228e-05;
Diff5  -6.969864866646174e-07;
}
H2O2-CO2
{
Diff1  -0.0019200571100619333;
Diff2  0.0008433061217638981;
Diff3  -0.00011352416700663822;
Diff4  6.474000836142679e-06;
Diff5  -9.404577611085978e-08;
}
H2O2-OH
{
Diff1  -0.0044250214607718975;
Diff2  0.002377337171480393;
Diff3  -0.0004328352749625389;
Diff4  3.642055262590953e-05;
Diff5  -1.1226461869891016e-06;
}
H2O2-HCO
{
Diff1  0.0005451663421819347;
Diff2  -0.0007023824147413284;
Diff3  0.00023639454869835077;
Diff4  -2.7598885358401568e-05;
Diff5  1.1263512411061667e-06;
}
H2O2-HO2
{
Diff1  -0.003056268300626027;
Diff2  0.0015961410248910362;
Diff3  -0.0002836411865816468;
Diff4  2.3254759528043535e-05;
Diff5  -6.973699462723649e-07;
}
H2O2-H2O2
{
Diff1  -0.003033197649291935;
Diff2  0.0015840923402075633;
Diff3  -0.0002815000830285195;
Diff4  2.3079217855679582e-05;
Diff5  -6.921057556687821e-07;
}
C2H3-C2H4
{
Diff1  0.0015594508186797798;
Diff2  -0.0012998474708566365;
Diff3  0.0003649721960766366;
Diff4  -3.966748700983098e-05;
Diff5  1.5456241774521608e-06;
}
C2H3-H2
{
Diff1  -0.009640489393709767;
Diff2  0.005096817921620048;
Diff3  -0.0009143230529377865;
Diff4  7.575173438707875e-05;
Diff5  -2.2962124407539474e-06;
}
C2H3-H
{
Diff1  -0.006051814325170231;
Diff2  0.0013376487944893687;
Diff3  0.00021740857354908622;
Diff4  -5.219935837844324e-05;
Diff5  2.800675761731988e-06;
}
C2H3-O2
{
Diff1  -0.002017631168820656;
Diff2  0.0008450262479838664;
Diff3  -0.0001016515820217343;
Diff4  4.576683622901494e-06;
Diff5  -3.980134558767173e-09;
}
C2H3-O
{
Diff1  -0.004021774263552851;
Diff2  0.00191797658426724;
Diff3  -0.0003026445382098667;
Diff4  2.1777273839997734e-05;
Diff5  -5.481461633717201e-07;
}
C2H3-H2O
{
Diff1  0.01189940028321595;
Diff2  -0.0073057252936933595;
Diff3  0.0016478162863818632;
Diff4  -0.00015877984522855087;
Diff5  5.644006452870465e-06;
}
C2H3-CO
{
Diff1  -0.002191767731787972;
Diff2  0.0009659135868747959;
Diff3  -0.00013098858829278736;
Diff4  7.5669919933838616e-06;
Diff5  -1.1489628590487276e-07;
}
C2H3-CO2
{
Diff1  0.0014485452347251365;
Diff2  -0.001173367441385316;
Diff3  0.0003241304304144164;
Diff4  -3.496961698497567e-05;
Diff5  1.3556957815872554e-06;
}
C2H3-OH
{
Diff1  -0.003946177740077637;
Diff2  0.0018819247443659002;
Diff3  -0.0002969557865709345;
Diff4  2.136793057888101e-05;
Diff5  -5.378427645315207e-07;
}
C2H3-HCO
{
Diff1  0.006867405240116581;
Diff2  -0.004284003624698518;
Diff3  0.0009801505509150713;
Diff4  -9.5401003989961e-05;
Diff5  3.420616607979047e-06;
}
C2H3-HO2
{
Diff1  -0.00200346887544886;
Diff2  0.0008390947825065571;
Diff3  -0.00010093806235309067;
Diff4  4.5445586554078024e-06;
Diff5  -3.952196937890613e-09;
}
C2H3-H2O2
{
Diff1  -0.001990053976076507;
Diff2  0.0008334763413032353;
Diff3  -0.00010026219762180664;
Diff4  4.5141290349140466e-06;
Diff5  -3.925733663793291e-09;
}
C2H3-C2H3
{
Diff1  0.002151166349571511;
Diff2  -0.0016210000557478085;
Diff3  0.0004281815626090811;
Diff4  -4.521698032317456e-05;
Diff5  1.7266405882715566e-06;
}
C2H2-C2H4
{
Diff1  0.001574744548168195;
Diff2  -0.0013125952378010661;
Diff3  0.0003685515241142586;
Diff4  -4.005651102307477e-05;
Diff5  1.5607823073417749e-06;
}
C2H2-H2
{
Diff1  -0.00965342526681872;
Diff2  0.0051036569717128125;
Diff3  -0.0009155499166895052;
Diff4  7.585338014206006e-05;
Diff5  -2.2992935615877252e-06;
}
C2H2-H
{
Diff1  -0.0060560218171541325;
Diff2  0.0013385787877336517;
Diff3  0.00021755972572349284;
Diff4  -5.2235649708333666e-05;
Diff5  2.8026229168389956e-06;
}
C2H2-O2
{
Diff1  -0.0020386859932325406;
Diff2  0.0008538444500188671;
Diff3  -0.00010271235876112224;
Diff4  4.624443229217549e-06;
Diff5  -4.021668931496637e-09;
}
C2H2-O
{
Diff1  -0.004050605074236105;
Diff2  0.0019317259436692868;
Diff3  -0.00030481409990267076;
Diff4  2.193338813615908e-05;
Diff5  -5.520756475226575e-07;
}
C2H2-H2O
{
Diff1  0.011991130138128952;
Diff2  -0.007362043520263369;
Diff3  0.0016605189390588879;
Diff4  -0.000160003844070354;
Diff5  5.6875148550325925e-06;
}
C2H2-CO
{
Diff1  -0.002213246191569245;
Diff2  0.0009753791592642245;
Diff3  -0.00013227222482223536;
Diff4  7.641145531975333e-06;
Diff5  -1.1602222421260787e-07;
}
C2H2-CO2
{
Diff1  0.001465808447899401;
Diff2  -0.0011873511898985482;
Diff3  0.0003279932940533267;
Diff4  -3.5386371628300103e-05;
Diff5  1.3718524501648557e-06;
}
C2H2-OH
{
Diff1  -0.00397555681595052;
Diff2  0.0018959355704074384;
Diff3  -0.00029916660604129713;
Diff4  2.1527013644734738e-05;
Diff5  -5.418469742779446e-07;
}
C2H2-HCO
{
Diff1  0.006935865673587619;
Diff2  -0.0043267104018431205;
Diff3  0.0009899215676588816;
Diff4  -9.635204646655486e-05;
Diff5  3.4547163716535117e-06;
}
C2H2-HO2
{
Diff1  -0.0020246709807785757;
Diff2  0.0008479746688751682;
Diff3  -0.00010200625934605736;
Diff4  4.592652345442668e-06;
Diff5  -3.994021838728305e-09;
}
C2H2-H2O2
{
Diff1  -0.0020113974926177277;
Diff2  0.000842415453656832;
Diff3  -0.00010133751914637297;
Diff4  4.5625434946018825e-06;
Diff5  -3.9678375335770675e-09;
}
C2H2-C2H3
{
Diff1  0.0021718859043981516;
Diff2  -0.0016366131669960525;
Diff3  0.00043230571198698534;
Diff4  -4.5652500199683576e-05;
Diff5  1.7432712055840328e-06;
}
C2H2-C2H2
{
Diff1  0.0021924096560376628;
Diff2  -0.0016520787317868104;
Diff3  0.00043639088747827803;
Diff4  -4.6083904342090185e-05;
Diff5  1.7597446608417355e-06;
}
CH4-C2H4
{
Diff1  -0.001782713440595603;
Diff2  0.00062584965591302;
Diff3  -3.743315541688863e-05;
Diff4  -2.561130795708914e-06;
Diff5  2.7787007159379337e-07;
}
CH4-H2
{
Diff1  -0.00848200740606869;
Diff2  0.004753196449428737;
Diff3  -0.0008884838778255998;
Diff4  7.709224617644328e-05;
Diff5  -2.4468226705422157e-06;
}
CH4-H
{
Diff1  -0.016798072125970478;
Diff2  0.008092001051007745;
Diff3  -0.0012988732120842422;
Diff4  9.537156380350812e-05;
Diff5  -2.4782380689475866e-06;
}
CH4-O2
{
Diff1  -0.0034988088747142337;
Diff2  0.001770656151599679;
Diff3  -0.00030404459245461467;
Diff4  2.405300177538219e-05;
Diff5  -6.918644716404808e-07;
}
CH4-O
{
Diff1  -0.0049923295405593674;
Diff2  0.0026119503294860596;
Diff3  -0.0004648317194388052;
Diff4  3.8170881117230436e-05;
Diff5  -1.1465893053293108e-06;
}
CH4-H2O
{
Diff1  0.00860546855507325;
Diff2  -0.0055958227697099055;
Diff3  0.0013264339989168042;
Diff4  -0.0001320757277752311;
Diff5  4.824811077733519e-06;
}
CH4-CO
{
Diff1  -0.00337880969417297;
Diff2  0.0017262012335968909;
Diff3  -0.0002992048717117942;
Diff4  2.3909070595076803e-05;
Diff5  -6.956797142913897e-07;
}
CH4-CO2
{
Diff1  -0.0014504678947645185;
Diff2  0.0004848042116954979;
Diff3  -1.9755549184121244e-05;
Diff4  -3.4371003946536045e-06;
Diff5  2.8393051616381405e-07;
}
CH4-OH
{
Diff1  -0.004917696613028348;
Diff2  0.002572902927251776;
Diff3  -0.0004578827086113135;
Diff4  3.760024478780247e-05;
Diff5  -1.1294483462155447e-06;
}
CH4-HCO
{
Diff1  0.0025363415819408303;
Diff2  -0.0019106114325007865;
Diff3  0.0005045715996008693;
Diff4  -5.327822517305788e-05;
Diff5  2.0343078015367618e-06;
}
CH4-HO2
{
Diff1  -0.003480921649954134;
Diff2  0.001761603892477904;
Diff3  -0.00030249020233090657;
Diff4  2.3930033798577485e-05;
Diff5  -6.883274006729954e-07;
}
CH4-H2O2
{
Diff1  -0.003464010281427157;
Diff2  0.0017530454888074214;
Diff3  -0.0003010206135832654;
Diff4  2.3813774468081287e-05;
Diff5  -6.849832983014968e-07;
}
CH4-C2H3
{
Diff1  -0.0012257858853137425;
Diff2  0.000310860354467676;
Diff3  2.6580971311127462e-05;
Diff4  -8.370770356358219e-06;
Diff5  4.7334086075072046e-07;
}
CH4-C2H2
{
Diff1  -0.0012345882661569556;
Diff2  0.00031309264581982227;
Diff3  2.67718495341784e-05;
Diff4  -8.430880942863068e-06;
Diff5  4.76739926255705e-07;
}
CH4-CH4
{
Diff1  -0.0035096650172919334;
Diff2  0.0017007413573665484;
Diff3  -0.0002755874139063913;
Diff4  2.0457220798799553e-05;
Diff5  -5.403457160370338e-07;
}
CH3-C2H4
{
Diff1  -0.0017076114460650865;
Diff2  0.0005772926994616816;
Diff3  -2.6126773750191255e-05;
Diff4  -3.6836340526536325e-06;
Diff5  3.1875778203710526e-07;
}
CH3-H2
{
Diff1  -0.008386108668627197;
Diff2  0.004691226199159523;
Diff3  -0.0008755134626566181;
Diff4  7.584650510536051e-05;
Diff5  -2.4032773646547836e-06;
}
CH3-H
{
Diff1  -0.016287567515301755;
Diff2  0.007806467685088397;
Diff3  -0.0012424669191316313;
Diff4  9.032790860746924e-05;
Diff5  -2.3112731718629754e-06;
}
CH3-O2
{
Diff1  -0.0035249956962490345;
Diff2  0.0017801646362730294;
Diff3  -0.0003049993737600602;
Diff4  2.4070574049985574e-05;
Diff5  -6.903947178341752e-07;
}
CH3-O
{
Diff1  -0.0050079607334877424;
Diff2  0.002615721593111355;
Diff3  -0.0004648685324387309;
Diff4  3.811688111005587e-05;
Diff5  -1.1431812827430111e-06;
}
CH3-H2O
{
Diff1  0.0056396994924134535;
Diff2  -0.003904865981311113;
Diff3  0.0009722869115203534;
Diff4  -9.958695824611479e-05;
Diff5  3.718491947888623e-06;
}
CH3-CO
{
Diff1  -0.0033907606456903727;
Diff2  0.0017282716043852636;
Diff3  -0.00029871362007977955;
Diff4  2.3800048784658837e-05;
Diff5  -6.900448634715758e-07;
}
CH3-CO2
{
Diff1  -0.001386217724871042;
Diff2  0.000441937924803899;
Diff3  -9.486588448659946e-06;
Diff4  -4.47325958326669e-06;
Diff5  3.221751335488127e-07;
}
CH3-OH
{
Diff1  -0.004935536959887559;
Diff2  0.0025778937349184034;
Diff3  -0.00045814572945765305;
Diff4  3.756564508507363e-05;
Diff5  -1.1266489042325687e-06;
}
CH3-HCO
{
Diff1  0.002693736277101405;
Diff2  -0.0020041538091244665;
Diff3  0.0005249537070037087;
Diff4  -5.5205411594227855e-05;
Diff5  2.1017363150401196e-06;
}
CH3-HO2
{
Diff1  -0.003507746818162366;
Diff2  0.0017714537482529911;
Diff3  -0.00030350691888477024;
Diff4  2.3952789396401684e-05;
Diff5  -6.870164061048884e-07;
}
CH3-H2O2
{
Diff1  -0.0034914424881461893;
Diff2  0.00176321986820995;
Diff3  -0.00030209619079478765;
Diff4  2.3841454626951785e-05;
Diff5  -6.83823090623605e-07;
}
CH3-C2H3
{
Diff1  -0.0011585659619077816;
Diff2  0.00026718047975990807;
Diff3  3.676731149202827e-05;
Diff4  -9.380765632125812e-06;
Diff5  5.100450325829072e-07;
}
CH3-C2H2
{
Diff1  -0.0011665508172007935;
Diff2  0.0002690218919352896;
Diff3  3.702071239566295e-05;
Diff4  -9.445418020129005e-06;
Diff5  5.135602711721808e-07;
}
CH3-CH4
{
Diff1  -0.003479586966673144;
Diff2  0.0016790313688376621;
Diff3  -0.00027024415432407375;
Diff4  1.990599059506276e-05;
Diff5  -5.197483075979193e-07;
}
CH3-CH3
{
Diff1  -0.0034409280361573456;
Diff2  0.0016525325006103062;
Diff3  -0.00026391614213234593;
Diff4  1.9264329242272498e-05;
Diff5  -4.960500028504701e-07;
}
CH2-C2H4
{
Diff1  -0.001747101727687932;
Diff2  0.0005906431904837844;
Diff3  -2.6730982427396186e-05;
Diff4  -3.7688219017432896e-06;
Diff5  3.2612938557882316e-07;
}
CH2-H2
{
Diff1  -0.008421659301319497;
Diff2  0.004711113379980394;
Diff3  -0.0008792249644675684;
Diff4  7.616803578759297e-05;
Diff5  -2.4134654070594882e-06;
}
CH2-H
{
Diff1  -0.016324296381304906;
Diff2  0.00782407146203104;
Diff3  -0.0012452687126407187;
Diff4  9.053160026632847e-05;
Diff5  -2.3164851497901466e-06;
}
CH2-O2
{
Diff1  -0.003610135202136788;
Diff2  0.001823161096579385;
Diff3  -0.0003123660482802859;
Diff4  2.4651952570085363e-05;
Diff5  -7.070698772436281e-07;
}
CH2-O
{
Diff1  -0.0050998816165755525;
Diff2  0.002663733039595207;
Diff3  -0.00047340117242827546;
Diff4  3.8816514665215795e-05;
Diff5  -1.1641643212742693e-06;
}
CH2-H2O
{
Diff1  0.005749093308581439;
Diff2  -0.003980609058033709;
Diff3  0.0009911464581709095;
Diff4  -0.00010151865645434024;
Diff5  3.7906199088147135e-06;
}
CH2-CO
{
Diff1  -0.0034691330221015477;
Diff2  0.001768218025519275;
Diff3  -0.0003056179400000115;
Diff4  2.4350151424359833e-05;
Diff5  -7.059942215726247e-07;
}
CH2-CO2
{
Diff1  -0.0014228581820813974;
Diff2  0.0004536192121883492;
Diff3  -9.737337613874782e-06;
Diff4  -4.591496620287985e-06;
Diff5  3.30690855132615e-07;
}
CH2-OH
{
Diff1  -0.005028781848268768;
Diff2  0.002626596726209046;
Diff3  -0.0004668012714490404;
Diff4  3.8275355986134995e-05;
Diff5  -1.1479341771781857e-06;
}
CH2-HCO
{
Diff1  0.002756753942215406;
Diff2  -0.002051039279927085;
Diff3  0.0005372345517119105;
Diff4  -5.649689516273991e-05;
Diff5  2.150904645422773e-06;
}
CH2-HO2
{
Diff1  -0.003593295042058037;
Diff2  0.0018146566159995172;
Diff3  -0.0003109089576278631;
Diff4  2.4536958863645677e-05;
Diff5  -7.037716157498495e-07;
}
CH2-H2O2
{
Diff1  -0.003577380629313439;
Diff2  0.0018066196488033253;
Diff3  -0.00030953196703256176;
Diff4  2.4428286659870273e-05;
Diff5  -7.006546682551128e-07;
}
CH2-C2H3
{
Diff1  -0.0011850188793552693;
Diff2  0.00027328086886272416;
Diff3  3.7606799868375715e-05;
Diff4  -9.594951640822083e-06;
Diff5  5.216906182460238e-07;
}
CH2-C2H2
{
Diff1  -0.001192826670344025;
Diff2  0.00027508144769643655;
Diff3  3.785458160025808e-05;
Diff4  -9.658170360704564e-06;
Diff5  5.251279063458615e-07;
}
CH2-CH4
{
Diff1  -0.003543538829530304;
Diff2  0.001709890544036946;
Diff3  -0.0002752110131085501;
Diff4  2.0271845850960684e-05;
Diff5  -5.29300841500847e-07;
}
CH2-CH3
{
Diff1  -0.003502199992318464;
Diff2  0.0016819588349818596;
Diff3  -0.00026861564706969854;
Diff4  1.9607365517641477e-05;
Diff5  -5.048830716425196e-07;
}
CH2-CH2
{
Diff1  -0.003562418254789717;
Diff2  0.0017108791247444765;
Diff3  -0.0002732343346293682;
Diff4  1.9944502598702722e-05;
Diff5  -5.135642381590292e-07;
}
CH2O-C2H4
{
Diff1  0.006385136075366192;
Diff2  -0.004041876571091009;
Diff3  0.0009366713886595591;
Diff4  -9.195869554295692e-05;
Diff5  3.321183458739384e-06;
}
CH2O-H2
{
Diff1  -0.009762886592027935;
Diff2  0.004779074163049336;
Diff3  -0.0007858558229379803;
Diff4  5.931204218810342e-05;
Diff5  -1.604150657611613e-06;
}
CH2O-H
{
Diff1  0.01503187410020702;
Diff2  -0.01113422394939384;
Diff3  0.0029077577431878836;
Diff4  -0.0003053326128675639;
Diff5  1.1611911681371765e-05;
}
CH2O-O2
{
Diff1  0.0005481265157758139;
Diff2  -0.0007061962486419903;
Diff3  0.0002376781365628588;
Diff4  -2.774874327397511e-05;
Diff5  1.1324671637967695e-06;
}
CH2O-O
{
Diff1  -0.0013193470785842416;
Diff2  0.00021059727340927903;
Diff3  8.289091085394808e-05;
Diff4  -1.585963650245682e-05;
Diff5  8.017427996903311e-07;
}
CH2O-H2O
{
Diff1  0.016213327589266264;
Diff2  -0.009463133293538746;
Diff3  0.0020330645117644635;
Diff4  -0.00018798783202946123;
Diff5  6.429449475096154e-06;
}
CH2O-CO
{
Diff1  7.622502660368307e-05;
Diff2  -0.00042066103234477927;
Diff3  0.00017475175515918912;
Diff4  -2.1744993497193575e-05;
Diff5  9.210256145520887e-07;
}
CH2O-CO2
{
Diff1  0.005490022368145028;
Diff2  -0.0034636373652993557;
Diff3  0.0008003386260567461;
Diff4  -7.842312742985594e-05;
Diff5  2.827798327412652e-06;
}
CH2O-OH
{
Diff1  -0.0012935882587990926;
Diff2  0.000206485590212507;
Diff3  8.127255578359236e-05;
Diff4  -1.5549994312684183e-05;
Diff5  7.860896416815809e-07;
}
CH2O-HCO
{
Diff1  0.010248964092759539;
Diff2  -0.006041755278365907;
Diff3  0.0013110728891657306;
Diff4  -0.00012238356949237798;
Diff5  4.224738873196512e-06;
}
CH2O-HO2
{
Diff1  0.0005440595516918467;
Diff2  -0.0007009564459727446;
Diff3  0.00023591462318127142;
Diff4  -2.7542854416062612e-05;
Diff5  1.1240645356603968e-06;
}
CH2O-H2O2
{
Diff1  0.0005402056861210452;
Diff2  -0.0006959911955582747;
Diff3  0.00023424351338927375;
Diff4  -2.7347753607580745e-05;
Diff5  1.1161021837420728e-06;
}
CH2O-C2H3
{
Diff1  0.006811569301050317;
Diff2  -0.004249172220840861;
Diff3  0.0009721813653882581;
Diff4  -9.462533917035548e-05;
Diff5  3.3928050352152955e-06;
}
CH2O-C2H2
{
Diff1  0.006880585313219007;
Diff2  -0.004292225577382395;
Diff3  0.0009820316771135386;
Diff4  -9.558409966622879e-05;
Diff5  3.427181529572004e-06;
}
CH2O-CH4
{
Diff1  0.0025211385886596037;
Diff2  -0.00189915910565373;
Diff3  0.0005015471652336446;
Diff4  -5.2958872091360285e-05;
Diff5  2.0221140307511386e-06;
}
CH2O-CH3
{
Diff1  0.0026782600376945324;
Diff2  -0.0019926394064639346;
Diff3  0.0005219377067682077;
Diff4  -5.4888241656870784e-05;
Diff5  2.0896612746387645e-06;
}
CH2O-CH2
{
Diff1  0.002741633454130172;
Diff2  -0.0020397895581030223;
Diff3  0.0005342878800809359;