/*--------------------------------*- C++ -*----------------------------------*\
| =========                 |                                                 |
| \\      /  F ield         | OpenFOAM: The Open Source CFD Toolbox           |
|  \\    /   O peration     | Version:  2.3.0                                 |
|   \\  /    A nd           | Web:      www.OpenFOAM.org                      |
|    \\/     M anipulation  |                                                 |
\*---------------------------------------------------------------------------*/
FoamFile
{
    version     2.0;
    format      ascii;
    class       dictionary;
    location    "constant";
    object      binaryDiff;
}

C2H4-C2H4
{
Diff1	0.003276426084362272;
Diff2	-0.0022330821954316747;
Diff3	0.0005510583844116454;
Diff4	-5.645916185590085e-05;
Diff5	2.1146804157069316e-06;
}
O2-C2H4
{
Diff1	-0.0013909745438978921;
Diff2	0.0004921940013766341;
Diff3	-2.914972577996487e-05;
Diff4	-2.158553870020028e-06;
Diff5	2.3030905247105718e-07;
}
O2-O2
{
Diff1	-0.003101712614965204;
Diff2	0.0016181326744356714;
Diff3	-0.000286911081915832;
Diff4	2.3472389521307365e-05;
Diff5	-7.018791444560685e-07;
}
CO2-C2H4
{
Diff1	0.002265890491882335;
Diff2	-0.0016351327159860774;
Diff3	0.0004209857215741053;
Diff4	-4.4136786178320516e-05;
Diff5	1.6819252388580497e-06;
}
CO2-O2
{
Diff1	-0.0017007565307836203;
Diff2	0.0007060328635033101;
Diff3	-8.139234844684883e-05;
Diff4	3.1998674856636983e-06;
Diff5	2.9863041911962295e-08;
}
CO2-CO2
{
Diff1	0.001408117985267686;
Diff2	-0.0011150839032653807;
Diff3	0.0003053437140237065;
Diff4	-3.301368564890228e-05;
Diff5	1.2862608349751305e-06;
}
CO-C2H4
{
Diff1	-0.0016296785944092131;
Diff2	0.0006488543910520874;
Diff3	-6.590715342423906e-05;
Diff4	1.5257392560170007e-06;
Diff5	9.492898643701534e-08;
}
CO-O2
{
Diff1	-0.003012606872177881;
Diff2	0.001586258716628848;
Diff3	-0.00028368776034790386;
Diff4	2.3421232880603163e-05;
Diff5	-7.073714231653092e-07;
}
CO-CO2
{
Diff1	-0.0018510543496790702;
Diff2	0.0008094293077949584;
Diff3	-0.00010623186214087796;
Diff4	5.725919346745416e-06;
Diff5	-6.373067994918797e-08;
}
CO-CO
{
Diff1	-0.002879620619751388;
Diff2	0.0015275007674876758;
Diff3	-0.0002744357919908138;
Diff4	2.277761246749754e-05;
Diff5	-6.912933785715706e-07;
}
H2O-C2H4
{
Diff1	0.012375052310457487;
Diff2	-0.007545396737939386;
Diff3	0.0016929654289525367;
Diff4	-0.00016291069412390424;
Diff5	5.791527210585214e-06;
}
H2O-O2
{
Diff1	0.0058593938212313885;
Diff2	-0.004042478756505955;
Diff3	0.0010069829547315256;
Diff4	-0.000103719522963181;
Diff5	3.900614092289863e-06;
}
H2O-CO2
{
Diff1	0.012710016677084853;
Diff2	-0.007722778249110672;
Diff3	0.0017270866437536976;
Diff4	-0.0001657539570637342;
Diff5	5.878340298090269e-06;
}
H2O-CO
{
Diff1	0.004779663684334366;
Diff2	-0.0033967761749647014;
Diff3	0.0008650159549829676;
Diff4	-9.017068732590561e-05;
Diff5	3.4216791280137493e-06;
}
H2O-H2O
{
Diff1	0.005112902894954205;
Diff2	-0.0021157476760833033;
Diff3	0.00022828270475107868;
Diff4	6.28579380413173e-06;
Diff5	-1.2109020884049214e-06;
}
H2-C2H4
{
Diff1	-0.009057094955646888;
Diff2	0.004763445277128064;
Diff3	-0.0008511637909320122;
Diff4	7.020453538432354e-05;
Diff5	-2.11826808242361e-06;
}
H2-O2
{
Diff1	-0.008350461594564125;
Diff2	0.004803024046130842;
Diff3	-0.0009121129465447217;
Diff4	8.062255749473103e-05;
Diff5	-2.604562494215911e-06;
}
H2-CO2
{
Diff1	-0.009234380377004765;
Diff2	0.004916691326690408;
Diff3	-0.0008864232641281184;
Diff4	7.38384521393523e-05;
Diff5	-2.2498188612904236e-06;
}
H2-CO
{
Diff1	-0.007552382372447334;
Diff2	0.004382536463117674;
Diff3	-0.0008342910286395205;
Diff4	7.405795350756721e-05;
Diff5	-2.4000326541626337e-06;
}
H2-H2O
{
Diff1	-0.00796697622864288;
Diff2	0.00297450483538528;
Diff3	-0.00023517415180994335;
Diff4	-3.6686406740805645e-06;
Diff5	9.446958505082758e-07;
}
H2-H2
{
Diff1	-0.007218755413903077;
Diff2	0.004740272623459561;
Diff3	-0.0009130038194218122;
Diff4	8.464828009824487e-05;
Diff5	-2.8124763535425634e-06;
}
A1-C2H4
{
Diff1	0.003906105955218612;
Diff2	-0.002429949830882993;
Diff3	0.0005554216302894308;
Diff4	-5.420953237580831e-05;
Diff5	1.951652187042433e-06;
}
A1-O2
{
Diff1	0.0004139833031220501;
Diff2	-0.0004529560341975179;
Diff3	0.00014519861261133257;
Diff4	-1.6772372491419682e-05;
Diff5	6.826970123018391e-07;
}
A1-CO2
{
Diff1	0.003054052550491656;
Diff2	-0.0019323222973444915;
Diff3	0.0004484081416752549;
Diff4	-4.4233819867170534e-05;
Diff5	1.607146289393109e-06;
}
A1-CO
{
Diff1	0.00015295027918559308;
Diff2	-0.00029904731910716716;
Diff3	0.00011214023605094774;
Diff4	-1.3659771690787954e-05;
Diff5	5.741402964803235e-07;
}
A1-H2O
{
Diff1	0.008883241836381265;
Diff2	-0.005140679775531787;
Diff3	0.0010945755096755548;
Diff4	-0.00010027468061272999;
Diff5	3.3971387729433915e-06;
}
A1-H2
{
Diff1	-0.005886925130959437;
Diff2	0.0028883038294446706;
Diff3	-0.0004738531714096443;
Diff4	3.5626173451669376e-05;
Diff5	-9.548685972825673e-07;
}
A1-A1
{
Diff1	0.0029017029034373813;
Diff2	-0.0017284338076224827;
Diff3	0.00037918388236579014;
Diff4	-3.579670666426046e-05;
Diff5	1.2500256447451298e-06;
}
A1OH-C2H4
{
Diff1	0.002968018635037007;
Diff2	-0.0018741493365061503;
Diff3	0.0004341464842883027;
Diff4	-4.277600478698819e-05;
Diff5	1.5526214971083132e-06;
}
A1OH-O2
{
Diff1	3.292993473521347e-05;
Diff2	-0.0001953832527566512;
Diff3	8.22963221355046e-05;
Diff4	-1.0356611862500621e-05;
Diff5	4.433378667787271e-07;
}
A1OH-CO2
{
Diff1	0.0022253007001390717;
Diff2	-0.0014350120438188882;
Diff3	0.0003385353948962273;
Diff4	-3.3761377971177954e-05;
Diff5	1.2378353953820498e-06;
}
A1OH-CO
{
Diff1	-0.00015923379026186986;
Diff2	-8.17992866273733e-05;
Diff3	5.7945265074507146e-05;
Diff4	-8.06556946970036e-06;
Diff5	3.635718714195471e-07;
}
A1OH-H2O
{
Diff1	0.007339884881482521;
Diff2	-0.0043459424939492;
Diff3	0.0009477283807953309;
Diff4	-8.89762181431719e-05;
Diff5	3.090440889280529e-06;
}
A1OH-H2
{
Diff1	-0.005216056021253303;
Diff2	0.0026142019061440405;
Diff3	-0.0004415685393180931;
Diff4	3.431237189148853e-05;
Diff5	-9.625816066637976e-07;
}
A1OH-A1
{
Diff1	0.002358454498046747;
Diff2	-0.001418211862941291;
Diff3	0.00031401997166404937;
Diff4	-2.9887666934640585e-05;
Diff5	1.0517900831944876e-06;
}
A1OH-A1OH
{
Diff1	0.0018916617571208061;
Diff2	-0.0011490118769118733;
Diff3	0.0002568772939807187;
Diff4	-2.464682983255682e-05;
Diff5	8.738694486938618e-07;
}
CH4-C2H4
{
Diff1	-0.00040862750347454456;
Diff2	-0.00015121549955974815;
Diff3	0.00012266608573515325;
Diff4	-1.737960022103606e-05;
Diff5	7.899977744378178e-07;
}
CH4-O2
{
Diff1	-0.0033880058596144793;
Diff2	0.0017046133386811454;
Diff3	-0.0002893576116036983;
Diff4	2.2608364330153663e-05;
Diff5	-6.388236454130568e-07;
}
CH4-CO2
{
Diff1	-0.0009922517340827978;
Diff2	0.0002096743761551633;
Diff3	4.190982710700831e-05;
Diff4	-9.551964332912796e-06;
Diff5	5.102985470330013e-07;
}
CH4-CO
{
Diff1	-0.003388657692698255;
Diff2	0.0017313628614536662;
Diff3	-0.00030019328821084;
Diff4	2.399055691995109e-05;
Diff5	-6.980961566630304e-07;
}
CH4-H2O
{
Diff1	0.010227084194968433;
Diff2	-0.0065692122338260025;
Diff3	0.0015445689978920863;
Diff4	-0.00015370589407257373;
Diff5	5.6256078850009e-06;
}
CH4-H2
{
Diff1	-0.00851770718316421;
Diff2	0.004774789309584139;
Diff3	-0.0008933760958238855;
Diff4	7.758387677784772e-05;
Diff5	-2.465298458494151e-06;
}
CH4-A1
{
Diff1	0.0016891612390982367;
Diff2	-0.0012465493886638678;
Diff3	0.0003260082227617295;
Diff4	-3.4457411839577184e-05;
Diff5	1.3208940755817494e-06;
}
CH4-A1OH
{
Diff1	0.0009742475274179871;
Diff2	-0.0007938120151293769;
Diff3	0.0002211126891241446;
Diff4	-2.409680459843526e-05;
Diff5	9.440011099868067e-07;
}
CH4-CH4
{
Diff1	-0.003218266000764436;
Diff2	0.0015266706575428426;
Diff3	-0.0002367607090005079;
Diff4	1.6624459109509367e-05;
Diff5	-3.9905600098702216e-07;
}
C-C2H4
{
Diff1	-0.0033305537361172206;
Diff2	0.0015784527515187016;
Diff3	-0.0002443771381278386;
Diff4	1.7121829999293556e-05;
Diff5	-4.0940217848783535e-07;
}
C-O2
{
Diff1	-0.004083224760393449;
Diff2	0.0022132505760738457;
Diff3	-0.00040448861533497085;
Diff4	3.420629070219965e-05;
Diff5	-1.0585028074895933e-06;
}
C-CO2
{
Diff1	-0.003650100111559049;
Diff2	0.001795665096311283;
Diff3	-0.0002957612149023907;
Diff4	2.233774274879445e-05;
Diff5	-6.026464790827874e-07;
}
C-CO
{
Diff1	-0.0038650496604491734;
Diff2	0.0021129553244792387;
Diff3	-0.00038866313699104977;
Diff4	3.310311369254733e-05;
Diff5	-1.0318453343621914e-06;
}
C-H2O
{
Diff1	-0.0005906507825289724;
Diff2	-0.00045282692977777417;
Diff3	0.0002812088398108582;
Diff4	-3.8365270601147395e-05;
Diff5	1.7126648417508638e-06;
}
C-H2
{
Diff1	-0.007733041463303687;
Diff2	0.004631870967444343;
Diff3	-0.0008918347126017289;
Diff4	8.049391722611403e-05;
Diff5	-2.6440194229056205e-06;
}
C-A1
{
Diff1	-0.0009384695403401787;
Diff2	0.00025123984800410183;
Diff3	1.615119977843962e-05;
Diff4	-6.033877842865892e-06;
Diff5	3.53089217450479e-07;
}
C-A1OH
{
Diff1	-0.0011356064109339032;
Diff2	0.00041960336306422105;
Diff3	-3.1600623947526745e-05;
Diff4	-7.678957160867672e-07;
Diff5	1.4520996321710684e-07;
}
C-CH4
{
Diff1	-0.00444610821900263;
Diff2	0.002347950778711066;
Diff3	-0.0004202690722410712;
Diff4	3.4742760291024535e-05;
Diff5	-1.0500430828090909e-06;
}
C-C
{
Diff1	-0.004736233007706405;
Diff2	0.0026690090043587312;
Diff3	-0.0005017985539889857;
Diff4	4.3791596464758845e-05;
Diff5	-1.398786660577767e-06;
}
N2-C2H4
{
Diff1	-0.0016608296737902495;
Diff2	0.0006654821218509056;
Diff3	-6.903385724178983e-05;
Diff4	1.7938047875822477e-06;
Diff5	8.641670532082845e-08;
}
N2-O2
{
Diff1	-0.0030307672948066693;
Diff2	0.0015965035547092677;
Diff3	-0.00028557030121630084;
Diff4	2.3582177682092732e-05;
Diff5	-7.123536659859646e-07;
}
N2-CO2
{
Diff1	-0.0018735892886834805;
Diff2	0.0008212816326079289;
Diff3	-0.00010836486062725163;
Diff4	5.901815932907047e-06;
Diff5	-6.90332685853478e-08;
}
N2-CO
{
Diff1	-0.002901654859084183;
Diff2	0.0015401113800365999;
Diff3	-0.00027686217917475387;
Diff4	2.2992853222869235e-05;
Diff5	-6.982900956641226e-07;
}
N2-H2O
{
Diff1	0.004546072452240472;
Diff2	-0.0032666924581859587;
Diff3	0.0008385227146723476;
Diff4	-8.777421822765002e-05;
Diff5	3.340977437172578e-06;
}
N2-H2
{
Diff1	-0.00759769788578456;
Diff2	0.004411408788386994;
Diff3	-0.0008399313320267395;
Diff4	7.458007559352972e-05;
Diff5	-2.417481617722688e-06;
}
N2-A1
{
Diff1	0.00013511489508692746;
Diff2	-0.00028982526495439237;
Diff3	0.00011045057819771879;
Diff4	-1.3519223476604737e-05;
Diff5	5.698153444970553e-07;
}
N2-A1OH
{
Diff1	-0.0001708571675230735;
Diff2	-7.584921326412606e-05;
Diff3	5.68878345994317e-05;
Diff4	-7.980402852549328e-06;
Diff5	3.6106874112037474e-07;
}
N2-CH4
{
Diff1	-0.0034243869141566247;
Diff2	0.0017513835839982727;
Diff3	-0.0003041026430535558;
Diff4	2.4338959869207013e-05;
Diff5	-7.095749878449109e-07;
}
N2-C
{
Diff1	-0.003895410379387643;
Diff2	0.002130813137239581;
Diff3	-0.0003921585057868195;
Diff4	3.341950469443586e-05;
Diff5	-1.0423338364107694e-06;
}
N2-N2
{
Diff1	-0.002923722034008769;
Diff2	0.0015527406306173747;
Diff3	-0.00027928906318304013;
Diff4	2.3207933448306077e-05;
Diff5	-7.05272055865105e-07;
}
