/*--------------------------------*- C++ -*----------------------------------*\
  =========                 |
  \\      /  F ield         | OpenFOAM: The Open Source CFD Toolbox
   \\    /   O peration     | Website:  https://openfoam.org
    \\  /    A nd           | Version:  10
     \\/     M anipulation  |
\*---------------------------------------------------------------------------*/
FoamFile
{
    version     2.0;
    format      ascii;
    class       dictionary;
    location    "system";
    object      decomposeParDict;
}
// * * * * * * * * * * * * * * * * * * * * * * * * * * * * * * * * * * * * * //

numberOfSubdomains  5;

method          scotch;

/*
scotchCoeffs
{
    processorWeights (1 1 10 10 10);
}
    geometric
    {
        type    geometric;

        grow    false;

        selection
        {
            box1
            {
                source  box;
                min     (-1 0.10 -1);
                max     (0.02 0.105 1);
            }
            box2
            {
                source  box;
                min     (0.02 0.10 -1);
                max     (0.04 0.105 1);
            }
}
}
*/

/*
simpleCoeffs
{
  n               (6 1 1);
  delta           0.001;
}
  
hierarchicalCoeffs
{
  n               (1 1 1);
  delta           0.001;
  order           xyz;
}
  
manualCoeffs
{
  dataFile        "";
}
  
distributed     no;
  
roots           ( );
*/

// ************************************************************************* //
