/*--------------------------------*- C++ -*----------------------------------*\
  =========                 |
  \\      /  F ield         | OpenFOAM: The Open Source CFD Toolbox
   \\    /   O peration     | Website:  https://openfoam.org
    \\  /    A nd           | Version:  7
     \\/     M anipulation  |
\*---------------------------------------------------------------------------*/
FoamFile
{
    version     2.0;
    format      ascii;
    class       polyBoundaryMesh;
    location    "constant/porousMat/polyMesh";
    object      boundary;
}
// * * * * * * * * * * * * * * * * * * * * * * * * * * * * * * * * * * * * * //

5
(
    s_front
    {
        type            wedge;
        physicalType    wedge;
        inGroups        List<word> 1(wedge);
        nFaces          1378;
        startFace       2247;
    }
    s_back
    {
        type            wedge;
        physicalType    wedge;
        inGroups        List<word> 1(wedge);
        nFaces          1378;
        startFace       3625;
    }
    porousMat_to_flow
    {
        type            mappedWall;
        inGroups        List<word> 1(wall);
        nFaces          46;
        startFace       5003;
        sampleMode      nearestPatchFace;
        sampleRegion    flow;
        samplePatch     flow_to_porousMat;
    }
    porousMat_to_alumina
    {
        type            mappedWall;
        inGroups        List<word> 1(wall);
        nFaces          20;
        startFace       5049;
        sampleMode      nearestPatchFace;
        sampleRegion    alumina;
        samplePatch     alumina_to_porousMat;
    }
    porousMat_to_graphite
    {
        type            mappedWall;
        inGroups        List<word> 1(wall);
        nFaces          10;
        startFace       5069;
        sampleMode      nearestPatchFace;
        sampleRegion    graphite;
        samplePatch     graphite_to_porousMat;
    }
)

// ************************************************************************* //
