/*--------------------------------*- C++ -*----------------------------------*\
  =========                 |
  \\      /  F ield         | OpenFOAM: The Open Source CFD Toolbox
   \\    /   O peration     | Website:  https://openfoam.org
    \\  /    A nd           | Version:  7
     \\/     M anipulation  |
\*---------------------------------------------------------------------------*/
FoamFile
{
    version     2.0;
    format      ascii;
    class       polyBoundaryMesh;
    location    "constant/polyMesh";
    object      boundary;
}
// * * * * * * * * * * * * * * * * * * * * * * * * * * * * * * * * * * * * * //

6
(
    front
    {
        type            empty;
        physicalType    empty;
        nFaces          67030;
        startFace       97354;
    }
    back
    {
        type            empty;
        physicalType    empty;
        nFaces          67030;
        startFace       164384;
    }
    wall
    {
        type            patch;
        physicalType    patch;
        nFaces          6297;
        startFace       231414;
    }
    inlet
    {
        type            patch;
        physicalType    patch;
        nFaces          60;
        startFace       237711;
    }
    outlet
    {
        type            patch;
        physicalType    patch;
        nFaces          23;
        startFace       237771;
    }
    injector
    {
        type            patch;
        physicalType    patch;
        nFaces          2;
        startFace       237794;
    }
)

// ************************************************************************* //
