/*--------------------------------*- C++ -*----------------------------------*\
  =========                 |
  \\      /  F ield         | OpenFOAM: The Open Source CFD Toolbox
   \\    /   O peration     | Website:  https://openfoam.org
    \\  /    A nd           | Version:  7
     \\/     M anipulation  |
\*---------------------------------------------------------------------------*/
FoamFile
{
    version     2.0;
    format      ascii;
    class       dictionary;
    location    "system";
    object      controlDict;
}
// * * * * * * * * * * * * * * * * * * * * * * * * * * * * * * * * * * * * * //

application     reactingDNS;

startFrom       latestTime;

startTime       0;

stopAt          endTime;

endTime         2;

deltaT          1e-5;

// either maxCo or maxDeltaT, not both 
//maxCo           0.4;
maxDeltaT       3.0e-6;

adjustTimeStep  yes;

writeControl    adjustableRunTime;
writeInterval   1e-2;
//writeControl    timeStep;
//writeInterval   250;

purgeWrite      0;

writeFormat     ascii;

writePrecision  12;

writeCompression off;

timeFormat      fixed;

timePrecision   6;

runTimeModifiable true;

/*
functions
{
    Co1
    {
        // Mandatory entries (unmodifiable)
        type            CourantNo;
        libs            ("libfieldFunctionObjects.so");

        // Optional (inherited) entries
        writeControl        writeTime;
    }

    wallHeatFlux1
    {
        type            wallHeatFlux;
        libs            ("libfieldFunctionObjects.so");

        // Optional entries (runtime modifiable)
        patches         ("sample");
        qr              qr;

        // Optional (inherited) entries
        writePrecision  8;
        writeToFile     true;
        //region          flow;
        writeControl    writeTime;
    }
   
    line
    {
        type                sets;
        functionObjectLibs  ("libsampling.so");
        enabled             true;
        writeControl        writeTime;
        //writeControl        timeStep;
        //writeInterval       100;
        //region              flow;
        precision           12;
        interpolationScheme cellPoint;
        setFormat           raw;
        sets
        (
            line1
            {
                type lineUniform;
                axis distance;
                start ( 1e-5 0.10 0 );
                end   ( 1e-5 0.11 0 );
                nPoints 1000;
            }
        );
        fields ( T C2H4 CO CO2 H2O O2 );
    }
 
    patchProbes
    {
       type                patchProbes;
       functionObjectLibs  ("libsampling.so");

       // Patches to sample (wildcards allowed)
       patchName           sample;

       // Name of the directory for probe data
       //name               patchProbes;

       writeControl         writeTime;
       //writeControl       timeStep;
       //writeInterval      5;

       //region             flow;
       fields               (wallHeatFlux);

        // Locations to probe. These get snapped onto the nearest point
        // on the selected patches
       probeLocations (
           ( 0.0 0.11 0.0)
       );
    }
}
*/

// ************************************************************************* //
