/*--------------------------------*- C++ -*----------------------------------*\
  =========                 |
  \\      /  F ield         | OpenFOAM: The Open Source CFD Toolbox
   \\    /   O peration     | Website:  https://openfoam.org
    \\  /    A nd           | Version:  10
     \\/     M anipulation  |
\*---------------------------------------------------------------------------*/
FoamFile
{
    format      ascii;
    class       volScalarField;
    location    "0/fluid";
    object      T;
}
// * * * * * * * * * * * * * * * * * * * * * * * * * * * * * * * * * * * * * //

dimensions      [0 0 0 1 0 0 0];

internalField   uniform 300;

boundaryField
{
    burner
    {
        type            fixedValue;
        value           uniform 300;
    }

    outlet
    {
        type            zeroGradient;
    }

    f_front
    {
        type            wedge;
    }

    f_back
    {
        type            wedge;
    }

    fuel
    {
        type            fixedValue;
        value           uniform 300;
    }

    shield
    {
        type            fixedValue;
        value           uniform 300;
    }

    fluid_to_solid
    {
        type            compressible::turbulentTemperatureCoupledBaffleMixed;
        Tnbr            T;
        value           uniform 300;
    }
}


// ************************************************************************* //
