/*--------------------------------*- C++ -*----------------------------------*\
| =========                 |                                                 |
| \\      /  F ield         | OpenFOAM: The Open Source CFD Toolbox           |
|  \\    /   O peration     | Version:  2.3.0                                 |
|   \\  /    A nd           | Web:      www.OpenFOAM.org                      |
|    \\/     M anipulation  |                                                 |
\*---------------------------------------------------------------------------*/
FoamFile
{
    version     2.0;
    format      ascii;
    class       dictionary;
    location    "constant";
    object      speciesMu;
}

C2H4
{
Mu1  0.0020280324556487;
Mu2  -0.0017289214349089893;
Mu3  0.000536077515986191;
Mu4  -6.19533174323803e-05;
Mu5  2.5054961867495495e-06;
}
O2
{
Mu1  -0.006280860305787691;
Mu2  0.0036755258105182066;
Mu3  -0.0006989155537477931;
Mu4  6.042267922488221e-05;
Mu5  -1.951788060135764e-06;
}
CO2
{
Mu1  -0.0014349894502325945;
Mu2  0.0002357128251134061;
Mu3  0.00013735100493931997;
Mu4  -2.593114708180147e-05;
Mu5  1.2906288456320004e-06;
}
CO
{
Mu1  -0.005329781885201365;
Mu2  0.0031791439469309045;
Mu3  -0.0006091101173592121;
Mu4  5.311925117997474e-05;
Mu5  -1.730041073744921e-06;
}
H2O
{
Mu1  0.0062144659897519034;
Mu2  -0.003007552407908267;
Mu3  0.000531748893035712;
Mu4  -3.274425664684852e-05;
Mu5  4.616673944991318e-07;
}
H2
{
Mu1  -0.00044135740261480713;
Mu2  0.0005414323063317691;
Mu3  -0.00010356810956996873;
Mu4  9.673877158687428e-06;
Mu5  -3.323040125664145e-07;
}
A1
{
Mu1  0.01699420872264938;
Mu2  -0.010188228890381179;
Mu3  0.0022936365316668646;
Mu4  -0.00022238594216493954;
Mu5  7.948349427913627e-06;
}
A1OH
{
Mu1  0.012564960497488719;
Mu2  -0.007706478364785167;
Mu3  0.0017790030800889694;
Mu4  -0.00017574720930986417;
Mu5  6.381029685250655e-06;
}
CH4
{
Mu1  -0.005543878464128703;
Mu2  0.0030742540658905424;
Mu3  -0.0005635658368386417;
Mu4  4.687671510405932e-05;
Mu5  -1.456701236238072e-06;
}
C
{
Mu1  -0.0035540188931775774;
Mu2  0.0022928689901715944;
Mu3  -0.000451129223221435;
Mu4  4.061835870705209e-05;
Mu5  -1.3635254580599553e-06;
}
N2
{
Mu1  -0.005349912337329212;
Mu2  0.0031950685178390352;
Mu3  -0.0006125055865557548;
Mu4  5.344876287075944e-05;
Mu5  -1.7418174930263008e-06;
}
