/*--------------------------------*- C++ -*----------------------------------*\
  =========                 |
  \\      /  F ield         | OpenFOAM: The Open Source CFD Toolbox
   \\    /   O peration     | Website:  https://openfoam.org
    \\  /    A nd           | Version:  7
     \\/     M anipulation  |
\*---------------------------------------------------------------------------*/
FoamFile
{
    version     2.0;
    format      ascii;
    class       dictionary;
    object      fvSolution;
}
// * * * * * * * * * * * * * * * * * * * * * * * * * * * * * * * * * * * * * //

solvers
{
    Ta
    {
        solver           PBiCGStab;
        preconditioner   DIC;
        tolerance        1e-06;
        relTol           0;
    };


    p
    {
        solver           PBiCGStab;
        preconditioner   DIC;
        tolerance        1e-07;
        relTol           0;
    };

    Xsii
    {
        solver           PBiCGStab;
        preconditioner   DIC;
        tolerance        1e-10;
        relTol           1e-06;
    };
}

/*
PIMPLE
{
    nNonOrthogonalCorrectors 0;
}

relaxationFactors
{
    equations
    {
        e               0.7;
    }
}
*/

// ************************************************************************* //
