/*--------------------------------*- C++ -*----------------------------------*\
  =========                 |
  \\      /  F ield         | OpenFOAM: The Open Source CFD Toolbox
   \\    /   O peration     | Website:  https://openfoam.org
    \\  /    A nd           | Version:  7
     \\/     M anipulation  |
\*---------------------------------------------------------------------------*/
FoamFile
{
    version     2.0;
    format      ascii;
    class       dictionary;
    location    "system/flow";
    object      setFieldsDict;
}
// * * * * * * * * * * * * * * * * * * * * * * * * * * * * * * * * * * * * * //

regions
(
    boxToCell
    {
        box (0.0 -1.0 -1.0) (0.0002 1.0 1.0);
        fieldValues
        (
            volVectorFieldValue U (0.145170508529917 0.0 0.0)
        );
    }

    boxToCell
    {
        box (0.0002 -1.0 -1.0) (0.5 1.0 1.0);
        fieldValues
        (
            volScalarFieldValue T 1800
            volVectorFieldValue U (0.871023051179502 0.0 0.0)
            volScalarFieldValue C2H4 0.0
            volScalarFieldValue O2 0.23290922
            volScalarFieldValue N2 0.76709078
        );
    }
);

// ************************************************************************* //
