/*--------------------------------*- C++ -*----------------------------------*\
| =========                 |                                                 |
| \\      /  F ield         | OpenFOAM: The Open Source CFD Toolbox           |
|  \\    /   O peration     | Version:  2.3.0                                 |
|   \\  /    A nd           | Web:      www.OpenFOAM.org                      |
|    \\/     M anipulation  |                                                 |
\*---------------------------------------------------------------------------*/
FoamFile
{
    version     2.0;
    format      ascii;
    class       dictionary;
    location    "constant";
    object      speciesLambda;
}

C2H4
{
Lambda1  0.23844120988982623;
Lambda2  -0.12796878999453964;
Lambda3  0.024575111608409306;
Lambda4  -0.001974356645270854;
Lambda5  5.668944251373442e-05;
}
H2
{
Lambda1  -0.9677034329275304;
Lambda2  0.5744337660301296;
Lambda3  -0.1257371151346395;
Lambda4  0.012123569772945523;
Lambda5  -0.0004317820757895341;
}
H
{
Lambda1  -0.19161479586135227;
Lambda2  0.09553836072745772;
Lambda3  -0.016523473530086274;
Lambda4  0.00129663923010161;
Lambda5  -3.721551758457342e-05;
}
O2
{
Lambda1  0.10689552101630528;
Lambda2  -0.06376711343770658;
Lambda3  0.014217756178712414;
Lambda4  -0.0013908411531386269;
Lambda5  5.09174438888175e-05;
}
O
{
Lambda1  0.027926115403422935;
Lambda2  -0.016356625373764096;
Lambda3  0.003849088291596164;
Lambda4  -0.0003927858198400925;
Lambda5  1.5080612326746909e-05;
}
H2O
{
Lambda1  -0.40448952246523034;
Lambda2  0.2516652858409429;
Lambda3  -0.058238000281090274;
Lambda4  0.005930903658809399;
Lambda5  -0.0002223375428685012;
}
CO
{
Lambda1  0.040600294618875724;
Lambda2  -0.020985470902516234;
Lambda3  0.004001373353088539;
Lambda4  -0.00032019801523515716;
Lambda5  9.270576537591034e-06;
}
CO2
{
Lambda1  0.08710886466592467;
Lambda2  -0.05136577647305578;
Lambda3  0.011079892418450574;
Lambda4  -0.001029106462773587;
Lambda5  3.531690263249683e-05;
}
OH
{
Lambda1  -0.24502310896223323;
Lambda2  0.15010008535887331;
Lambda3  -0.03385280923515083;
Lambda4  0.003364115480212172;
Lambda5  -0.0001233972942085657;
}
HCO
{
Lambda1  0.12106049922737952;
Lambda2  -0.06568749721524338;
Lambda3  0.012991361911708611;
Lambda4  -0.0011019701555636224;
Lambda5  3.427871259557219e-05;
}
HO2
{
Lambda1  -0.018484431132699684;
Lambda2  0.011373761063693448;
Lambda3  -0.0026436277213512833;
Lambda4  0.00028471699535619256;
Lambda5  -1.0883625749574912e-05;
}
H2O2
{
Lambda1  0.006133728726524626;
Lambda2  -0.0012884241746796332;
Lambda3  -0.0003832196624520179;
Lambda4  0.00012840152692769835;
Lambda5  -7.613061191923406e-06;
}
C2H3
{
Lambda1  0.1143834438018176;
Lambda2  -0.06043725154052427;
Lambda3  0.011229131917437936;
Lambda4  -0.0008428226720065614;
Lambda5  2.1570494127692944e-05;
}
C2H2
{
Lambda1  -0.07274406195870343;
Lambda2  0.04406673586010283;
Lambda3  -0.010255005355448769;
Lambda4  0.0010857856616006128;
Lambda5  -4.245179689416023e-05;
}
CH4
{
Lambda1  0.14677682651432417;
Lambda2  -0.06681802797672004;
Lambda3  0.009956130741676334;
Lambda4  -0.00048039302950334185;
Lambda5  1.5597312858208145e-06;
}
CH3
{
Lambda1  -0.10177096934283318;
Lambda2  0.07071197653924269;
Lambda3  -0.01812426901508243;
Lambda4  0.002038323241099894;
Lambda5  -8.321078878216132e-05;
}
CH2
{
Lambda1  -0.13553396798468245;
Lambda2  0.08538115148894396;
Lambda3  -0.020020880458238997;
Lambda4  0.002082986241578933;
Lambda5  -8.001014700916656e-05;
}
CH2O
{
Lambda1  0.1413820606007098;
Lambda2  -0.07202700530305295;
Lambda3  0.012996842162786282;
Lambda4  -0.0009595411017488158;
Lambda5  2.414314677126832e-05;
}
CH2CHO
{
Lambda1  0.1694602176257637;
Lambda2  -0.09382604317216947;
Lambda3  0.018834898518171623;
Lambda4  -0.0016161290313340025;
Lambda5  5.084553360724884e-05;
}
N2
{
Lambda1  0.0026129214099176513;
Lambda2  0.0015932386446981589;
Lambda3  -0.000984277527739843;
Lambda4  0.00016507154037197712;
Lambda5  -8.297315315373045e-06;
}
	
