/*--------------------------------*- C++ -*----------------------------------*\
| =========                 |                                                 |
| \\      /  F ield         | OpenFOAM: The Open Source CFD Toolbox           |
|  \\    /   O peration     | Version:  plus                                  |
|   \\  /    A nd           | Web:      www.OpenFOAM.com                      |
|    \\/     M anipulation  |                                                 |
\*---------------------------------------------------------------------------*/
FoamFile {
  version     2.0;
  format      ascii;
  class       dictionary;
  location    "constant";
  object      thermophysicalProperties;
}
// * * * * * * * * * * * * * * * * * * * * * * * * * * * * * * * * * * * * * //

thermoType {
  type            heRhoThermo;
  mixture         reactingMixture;
  transport       sutherland;
  thermo          janaf;
  energy          sensibleEnthalpy;
  equationOfState perfectGas;
  specie          specie;
}

inertSpecie C;
chemistryReader foamChemistryReader;
foamChemistryFile "$FOAM_CASE/constant/flow/reactions";
foamChemistryThermoFile "$FOAM_CASE/constant/flow/thermo.compressibleGas";

// Finite-rate chemistry (OpenFOAM chemistry solvers) -- for mode (finiteRate)
/*chemistryReader chemkinReader;*/
/*CHEMKINFile "$PATO_DIR/data/ThermoTransportChemistry/OpenFOAM/mechanisms/Carbon_oxidation.inp";  // Finite-rate chemistry file*/
/*CHEMKINThermoFile "$PATO_DIR/data/ThermoTransportChemistry/OpenFOAM/thermo/nasa7_GB.dat"; // Thermo file used to compute reverse rates*/
/*CHEMKINTransportFile "$PATO_DIR/data/ThermoTransportChemistry/OpenFOAM/transport/transportProperties"; // not used but needed for initialization, Mutation++ is used instead*/

// ************************************************************************* //
