/*--------------------------------*- C++ -*----------------------------------*\
| =========                 |                                                 |
| \\      /  F ield         | OpenFOAM: The Open Source CFD Toolbox           |
|  \\    /   O peration     | Version:  plus                                  |
|   \\  /    A nd           | Web:      www.OpenFOAM.com                      |
|    \\/     M anipulation  |                                                 |
\*---------------------------------------------------------------------------*/
FoamFile
{
    version     2.0;
    format      ascii;
    class       dictionary;
    location    "system";
    object      fvOptions;
}
// * * * * * * * * * * * * * * * * * * * * * * * * * * * * * * * * * * * * * //
 
limitT
{
    type            limitTemperature;
    active          yes;

    selectionMode   all;
    min             200;
    max             2400;
}

/*
verticalDamping_1
{
    type            verticalDamping;

    selectionMode   all;

    origin          (0.12 0 0);
    direction       (1 0 0);

    scale
    {
        type        halfCosineRamp;
        start       0;
        duration    .25;
    }

    lambda          [0 0 -1 0 0 0 0] 25; // Damping coefficient

    timeStart       0;
    duration        600;

    writeForceFields true;
}


verticalDamping_2
{
    type            verticalDamping;

    selectionMode   all;

    origin          (0.12 0 0);
    direction       (0 1 0);

    scale
    {
        type        halfCosineRamp;
        start       0;
        duration    .25;
    }

    lambda          [0 0 -1 0 0 0 0] 25; // Damping coefficient

    timeStart       0;
    duration        600;

    writeForceFields true;
}


verticalDamping_3
{
    type            verticalDamping;

    selectionMode   all;

    origin          (0 0.05 0);
    direction       (0 -1 0);

    scale
    {
        type        halfCosineRamp;
        start       0;
        duration    .05;
    }

    lambda          [0 0 -1 0 0 0 0] 100; // Damping coefficient

    timeStart       0;
    duration        600;

    writeForceFields true;
}
*/

isotropicDamping_X
{
    type            isotropicDamping;

    libs            ("libwaves.so");

    origin          (0.35 0 0);
    direction       (1 0 0);

    selectionMode   all;
    region flow;

    scale
    {
        type        halfCosineRamp;
        start       0;
        duration    0.5;
    }

    timeStart       0;
    duration        0.2;

    value           (0 0 0);            // Value towards which the field is
                                        // relaxed
    lambda          [0 0 -1 0 0 0 0] 500; // Damping coefficient

    // Write the forcing fields: forcing:scale, forcing:forceCoeff
    writeForceFields true;
}

isotropicDamping_y
{
    type            isotropicDamping;

    libs            ("libwaves.so");

    origin          (0 0.35 0);
    direction       (0 1 0);

    selectionMode   all;
    region flow;

    scale
    {
        type        halfCosineRamp;
        start       0;
        duration    0.2;
    }

    timeStart       0;
    duration        0.5;

    value           (0 0 0);            // Value towards which the field is
                                        // relaxed
    lambda          [0 0 -1 0 0 0 0] 400; // Damping coefficient

    // Write the forcing fields: forcing:scale, forcing:forceCoeff
    writeForceFields true;
}
