/*--------------------------------*- C++ -*----------------------------------*\
  =========                 |
  \\      /  F ield         | OpenFOAM: The Open Source CFD Toolbox
   \\    /   O peration     | Website:  https://openfoam.org
    \\  /    A nd           | Version:  7
     \\/     M anipulation  |
\*---------------------------------------------------------------------------*/
FoamFile
{
    version     2.0;
    format      ascii;
    class       dictionary;
    location    "system";
    object      controlDict;
}
// * * * * * * * * * * * * * * * * * * * * * * * * * * * * * * * * * * * * * //

application       reactingFoam;

startFrom         latestTime;
/*startFrom       startTime;*/

startTime         0;

stopAt            endTime;
/*stopAt          writeNow;*/

endTime           500.0;

deltaT            1e-7;

writeControl      adjustableRunTime;
writeInterval     0.5;

purgeWrite        0;

// For cfd coupled simulation, allow the flow to adjust to the solid temperature
delaySolid        0.5; // time in seconds

/*writeFormat     binary;*/
writeFormat       ascii;

writePrecision    15;

writeCompression  off;

timeFormat        fixed;

timePrecision     6;

runTimeModifiable true;

LTS               1; // everything else down here wrt time is ignored
adjustStartTime   0;
adjustTimeStep    no;
//LTS             0;
//adjustStartTime 1;
//adjustTimeStep    yes;

maxCo             1.0;

maxDeltaT       2e-5; // reduce it if the surface temperature starts oscillating

minDeltaT       1e-7;

minChemDeltaT   1e-7; // Minimum time step for species equation

REVlength       1e3;

dYtolMin        0.05; // Min variation of mass fractions in species equation
dYtolMax        0.1; // Max
Ythreshold      0.001; // Species below this mass fraction are ignored for the time step optimization
/* End adjustable time step */

functions
{
    probes_slug
    {
       // Type of functionObject
       type probes;

       // Where to load it from (if not already in solver)
       functionObjectLibs ("libsampling.so");
       writeControl   timeStep;
       writeInterval  25;

       region slug;

      // Fields to be probed. runTime modifiable!
       fields (Ta);

       // Locations to be probed. runTime modifiable!
       probeLocations
       (
       ( 0.0038076790509 0.11000 0.0)
       ( 0.0 0.11000 0.0)
       ( 0.0 0.12016 0.0)
       ); 
    }
    
    probes_holder
    {
       // Type of functionObject
       type probes;

       // Where to load it from (if not already in solver)
       functionObjectLibs ("libsampling.so");
       writeControl   timeStep;
       writeInterval  25;

       region holder;

      // Fields to be probed. runTime modifiable!
       fields (Ta);

       // Locations to be probed. runTime modifiable!
       probeLocations
       (
       ( 0.0038076790510 0.11000 0.0)
       ( 0.0158653293788 0.11000 0.0)
       ); 
    }
    
}

// ************************************************************************* //
