/*--------------------------------*- C++ -*----------------------------------*\
  =========                 |
  \\      /  F ield         | OpenFOAM: The Open Source CFD Toolbox
   \\    /   O peration     | Website:  https://openfoam.org
    \\  /    A nd           | Version:  7
     \\/     M anipulation  |
\*---------------------------------------------------------------------------*/
FoamFile
{
    version     2.0;
    format      ascii;
    class       polyBoundaryMesh;
    location    "constant/alumina/polyMesh";
    object      boundary;
}
// * * * * * * * * * * * * * * * * * * * * * * * * * * * * * * * * * * * * * //

4
(
    a_front
    {
        type            wedge;
        physicalType    wedge;
        inGroups        List<word> 1(wedge);
        nFaces          1066;
        startFace       1553;
    }
    a_back
    {
        type            wedge;
        physicalType    wedge;
        inGroups        List<word> 1(wedge);
        nFaces          1066;
        startFace       2619;
    }
    alumina_to_graphite
    {
        type            mappedWall;
        inGroups        List<word> 1(wall);
        nFaces          46;
        startFace       3685;
        sampleMode      nearestPatchFace;
        sampleRegion    graphite;
        samplePatch     graphite_to_alumina;
    }
    alumina_to_porousMat
    {
        type            mappedWall;
        inGroups        List<word> 1(wall);
        nFaces          20;
        startFace       3731;
        sampleMode      nearestPatchFace;
        sampleRegion    porousMat;
        samplePatch     porousMat_to_alumina;
    }
)

// ************************************************************************* //
