/*--------------------------------*- C++ -*----------------------------------*\
  =========                 |
  \\      /  F ield         | OpenFOAM: The Open Source CFD Toolbox
   \\    /   O peration     | Website:  https://openfoam.org
    \\  /    A nd           | Version:  7
     \\/     M anipulation  |
\*---------------------------------------------------------------------------*/
FoamFile
{
    version     2.0;
    format      ascii;
    class       dictionary;
    location    "system";
    object      fvSchemes;
}
// * * * * * * * * * * * * * * * * * * * * * * * * * * * * * * * * * * * * * //

ddtSchemes
{
    default         Euler;
}

gradSchemes
{
/*    default         cellMDLimited Gauss linear 0;*/
/*    grad(U)         cellMDLimited Gauss linear 0.333;*/
    default         faceLimited Gauss linear 0;
}
  
divSchemes
{
    default         none;
 
/*    div(phi,U)      Gauss linearUpwind grad(U);*/
/*    div(phi,h)      Gauss linearUpwind default;*/
/*    div(phi,Yi)     Gauss limitedLinear 1;*/
/*    div(phi,k)      Gauss linearUpwind default;*/
/*    div(phi,epsilon) Gauss linearUpwind default;*/
/*    div(phi,K)      Gauss linear;*/
/*    div(phiv,p)     Gauss linear 0.333;*/
/*    div((muEff*dev2(T(grad(U))))) Gauss linear;*/
/*    div(((rho*nuEff)*dev2(T(grad(U))))) Gauss linear;*/
    div(phi,U)       Gauss upwind;
    div(phi,h)       Gauss upwind;
    div(phi,Yi)      Gauss upwind;
    div(phi,k)       Gauss upwind;
    div(phi,epsilon) Gauss upwind;
    div(phi,K)       Gauss upwind;
    div(phiv,p)      Gauss upwind;
    div((muEff*dev2(T(grad(U)))))       Gauss linear;
    div(((rho*nuEff)*dev2(T(grad(U))))) Gauss linear;
}
  
laplacianSchemes
{
    default        Gauss linear limited 1.0;
}
  
interpolationSchemes
{
    default         linear;
}
  
snGradSchemes
{
    default         limited 1.0;
}

fluxRequired {
default         no;
  p_rgh;
}

// ************************************************************************* //
