! generator: yaml2ck
! cantera-version: 3.0.0
! date: Sun, 29 Sep 2024 15:06:30 -0500
! input-files: ['uiuc_7sp.yaml']
!
! Modified version of UIUC-XPACC mechanism

ELEM
O H C N
END

SPECIES
C2H4  O2  CO2  CO  H2O  H2  N2
END


REACTIONS
C2H4 + O2 => 2 CO + 2 H2 9999999999.999992 0.0 36000.0
FORD /C2H4 0.500/
FORD /O2 0.650/
CO + 0.5 O2 <=> CO2      11000000.0 0.7 11000.0
H2 + 0.5 O2 => H2O       700000000.0 0.0 12000.0
FORD /H2 0.750/
FORD /O2 0.500/
END
