/*--------------------------------*- C++ -*----------------------------------*\
| =========                 |                                                 |
| \\      /  F ield         | OpenFOAM: The Open Source CFD Toolbox           |
|  \\    /   O peration     | Version:  2.3.0                                 |
|   \\  /    A nd           | Web:      www.OpenFOAM.org                      |
|    \\/     M anipulation  |                                                 |
\*---------------------------------------------------------------------------*/
FoamFile
{
    version     2.0;
    format      ascii;
    class       dictionary;
    location    "constant";
    object      binaryDiff;
}

H2-H2
{
Diff1	-0.007218755413903077;
Diff2	0.004740272623459561;
Diff3	-0.0009130038194218122;
Diff4	8.464828009824487e-05;
Diff5	-2.8124763535425634e-06;
}
H-H2
{
Diff1	-0.025016245279398677;
Diff2	0.01398700584115973;
Diff3	-0.0026102308120466468;
Diff4	0.00022609739483060823;
Diff5	-7.164235573453281e-06;
}
H-H
{
Diff1	-0.04059959432623396;
Diff2	0.01887405281456852;
Diff3	-0.002817623539697815;
Diff4	0.00018795912010005758;
Diff5	-4.08971379104906e-06;
}
O-H2
{
Diff1	-0.009651478256253792;
Diff2	0.005712460164072584;
Diff3	-0.0010965662357870396;
Diff4	9.843671029512207e-05;
Diff5	-3.2206441430847235e-06;
}
O-H
{
Diff1	-0.026460130901080472;
Diff2	0.013796020750487454;
Diff3	-0.0024448256054065832;
Diff4	0.00019989713827756208;
Diff5	-5.973578465689529e-06;
}
O-O
{
Diff1	-0.006191906584850753;
Diff2	0.0034137245192000145;
Diff3	-0.0006316753385356609;
Diff4	5.416309430528788e-05;
Diff5	-1.6996540147913194e-06;
}
O2-H2
{
Diff1	-0.008350461594564125;
Diff2	0.004803024046130842;
Diff3	-0.0009121129465447217;
Diff4	8.062255749473103e-05;
Diff5	-2.604562494215911e-06;
}
O2-H
{
Diff1	-0.01909553825272205;
Diff2	0.009571015440249627;
Diff3	-0.0016167917176023007;
Diff4	0.00012564578851068418;
Diff5	-3.525242649885307e-06;
}
O2-O
{
Diff1	-0.004509083799017765;
Diff2	0.0024191368383949213;
Diff3	-0.00043910485751739656;
Diff4	3.684118874628353e-05;
Diff5	-1.1312485657585728e-06;
}
O2-O2
{
Diff1	-0.003101712614965204;
Diff2	0.0016181326744356714;
Diff3	-0.000286911081915832;
Diff4	2.3472389521307365e-05;
Diff5	-7.018791444560685e-07;
}
OH-H2
{
Diff1	-0.00961941741959743;
Diff2	0.00569348418470431;
Diff3	-0.00109292359887556;
Diff4	9.810971755861908e-05;
Diff5	-3.2099456217939585e-06;
}
OH-H
{
Diff1	-0.026413614131794935;
Diff2	0.013771767419444901;
Diff3	-0.0024405276150082397;
Diff4	0.00019954572017285595;
Diff5	-5.963076946560514e-06;
}
OH-O
{
Diff1	-0.006099468456059109;
Diff2	0.003362761491506775;
Diff3	-0.000622245143572085;
Diff4	5.335450085872926e-05;
Diff5	-1.674280111854806e-06;
}
OH-O2
{
Diff1	-0.004419101940726179;
Diff2	0.002370861304408815;
Diff3	-0.0004303422190681869;
Diff4	3.6105997569244394e-05;
Diff5	-1.1086737251263353e-06;
}
OH-OH
{
Diff1	-0.006005607690832919;
Diff2	0.0033110141352989276;
Diff3	-0.0006126698165150505;
Diff4	5.253346303946649e-05;
Diff5	-1.6485157007950922e-06;
}
H2O-H2
{
Diff1	-0.00796697622864288;
Diff2	0.00297450483538528;
Diff3	-0.00023517415180994335;
Diff4	-3.6686406740805645e-06;
Diff5	9.446958505082758e-07;
}
H2O-H
{
Diff1	0.040021695865225235;
Diff2	-0.02689540209453291;
Diff3	0.006563371571409304;
Diff4	-0.0006681139581555169;
Diff5	2.489840133281682e-05;
}
H2O-O
{
Diff1	0.0007249098450965957;
Diff2	-0.0013356182040246164;
Diff3	0.0004952122167461138;
Diff4	-6.011374510564903e-05;
Diff5	2.521628585688355e-06;
}
H2O-O2
{
Diff1	0.0058593938212313885;
Diff2	-0.004042478756505955;
Diff3	0.0010069829547315256;
Diff4	-0.000103719522963181;
Diff5	3.900614092289863e-06;
}
H2O-OH
{
Diff1	0.0007134411901621517;
Diff2	-0.0013144876532531794;
Diff3	0.00048737756246054325;
Diff4	-5.916269746435102e-05;
Diff5	2.481734399852279e-06;
}
H2O-H2O
{
Diff1	0.005112902894954205;
Diff2	-0.0021157476760833033;
Diff3	0.00022828270475107868;
Diff4	6.28579380413173e-06;
Diff5	-1.2109020884049214e-06;
}
HO2-H2
{
Diff1	-0.008342900622978636;
Diff2	0.004798675121472541;
Diff3	-0.0009112870688380919;
Diff4	8.054955735463252e-05;
Diff5	-2.6022041787162413e-06;
}
HO2-H
{
Diff1	-0.0190866311085703;
Diff2	0.009566551024896144;
Diff3	-0.0016160375625386407;
Diff4	0.0001255871808332171;
Diff5	-3.5235982948591874e-06;
}
HO2-O
{
Diff1	-0.004486073926540128;
Diff2	0.0024067919735320585;
Diff3	-0.0004368641036916201;
Diff4	3.66531880143312e-05;
Diff5	-1.125475799852332e-06;
}
HO2-O2
{
Diff1	-0.003077940014535049;
Diff2	0.001605730744828001;
Diff3	-0.0002847120959500048;
Diff4	2.329248899323482e-05;
Diff5	-6.964996994433792e-07;
}
HO2-OH
{
Diff1	-0.004395621063061214;
Diff2	0.0023582637438640665;
Diff3	-0.0004280555976828709;
Diff4	3.5914148518582634e-05;
Diff5	-1.1027827924280143e-06;
}
HO2-H2O
{
Diff1	0.0033360318733595164;
Diff2	-0.0025676341662208596;
Diff3	0.0006906572146488028;
Diff4	-7.403888643962596e-05;
Diff5	2.867420134128369e-06;
}
HO2-HO2
{
Diff1	-0.0030539823706761077;
Diff2	0.0015932322799015722;
Diff3	-0.0002824959933084522;
Diff4	2.311118813837537e-05;
Diff5	-6.910783813974753e-07;
}
H2O2-H2
{
Diff1	-0.00833578152746655;
Diff2	0.004794580355387664;
Diff3	-0.0009105094568325042;
Diff4	8.048082346713389e-05;
Diff5	-2.599983687192224e-06;
}
H2O2-H
{
Diff1	-0.019078248092325886;
Diff2	0.009562349311564463;
Diff3	-0.0016153277846357207;
Diff4	0.00012553202183984374;
Diff5	-3.52205069954205e-06;
}
H2O2-O
{
Diff1	-0.0044643195824788495;
Diff2	0.0023951207033879856;
Diff3	-0.0004347456160830364;
Diff4	3.6475445498999106e-05;
Diff5	-1.1200180235841539e-06;
}
H2O2-O2
{
Diff1	-0.003055407570406377;
Diff2	0.0015939757924504523;
Diff3	-0.00028262782550827857;
Diff4	2.312197341975404e-05;
Diff5	-6.914008864441376e-07;
}
H2O2-OH
{
Diff1	-0.004373416809634712;
Diff2	0.002346351096013142;
Diff3	-0.000425893296876701;
Diff4	3.5732730047015234e-05;
Diff5	-1.0972121419499578e-06;
}
H2O2-H2O
{
Diff1	0.0033185322422478454;
Diff2	-0.0025541652749041916;
Diff3	0.0006870342737008103;
Diff4	-7.36505048985031e-05;
Diff5	2.852378672752389e-06;
}
H2O2-HO2
{
Diff1	-0.003031271846678439;
Diff2	0.001581384425023228;
Diff3	-0.00028039525032507384;
Diff4	2.2939324935088878e-05;
Diff5	-6.859392711250417e-07;
}
H2O2-H2O2
{
Diff1	-0.0030083898844210652;
Diff2	0.0015694471325084323;
Diff3	-0.00027827864915619724;
Diff4	2.2766164362973134e-05;
Diff5	-6.807613665031371e-07;
}
C-H2
{
Diff1	-0.007733041463303687;
Diff2	0.004631870967444343;
Diff3	-0.0008918347126017289;
Diff4	8.049391722611403e-05;
Diff5	-2.6440194229056205e-06;
}
C-H
{
Diff1	-0.02117832732295451;
Diff2	0.011164884588296438;
Diff3	-0.0019975052613108346;
Diff4	0.0001650079740468888;
Diff5	-4.985261589841449e-06;
}
C-O
{
Diff1	-0.005313562193580054;
Diff2	0.002960251460189568;
Diff3	-0.0005508018497766692;
Diff4	4.756064976199393e-05;
Diff5	-1.502092756476291e-06;
}
C-O2
{
Diff1	-0.004083224760393449;
Diff2	0.0022132505760738457;
Diff3	-0.00040448861533497085;
Diff4	3.420629070219965e-05;
Diff5	-1.0585028074895933e-06;
}
C-OH
{
Diff1	-0.005245604163164933;
Diff2	0.0029223911978179602;
Diff3	-0.0005437573460132223;
Diff4	4.695237080208469e-05;
Diff5	-1.4828816770569627e-06;
}
C-H2O
{
Diff1	-0.0005906507825289724;
Diff2	-0.00045282692977777417;
Diff3	0.0002812088398108582;
Diff4	-3.8365270601147395e-05;
Diff5	1.7126648417508638e-06;
}
C-HO2
{
Diff1	-0.004066172325653705;
Diff2	0.002204007560265268;
Diff3	-0.00040279938289731576;
Diff4	3.4063437792049156e-05;
Diff5	-1.0540822695318377e-06;
}
C-H2O2
{
Diff1	-0.004050065043616277;
Diff2	0.0021952768502641064;
Diff3	-0.00040120377829719605;
Diff4	3.3928502684499194e-05;
Diff5	-1.0499067454603032e-06;
}
C-C
{
Diff1	-0.004736233007706405;
Diff2	0.0026690090043587312;
Diff3	-0.0005017985539889857;
Diff4	4.3791596464758845e-05;
Diff5	-1.398786660577767e-06;
}
CH-H2
{
Diff1	-0.009774308118163978;
Diff2	0.005785159980045218;
Diff3	-0.0011105217227863238;
Diff4	9.968946839220499e-05;
Diff5	-3.261631778860146e-06;
}
CH-H
{
Diff1	-0.026639013423727927;
Diff2	0.013889288127097605;
Diff3	-0.002461353738736894;
Diff4	0.00020124853387209053;
Diff5	-6.013962573673734e-06;
}
CH-O
{
Diff1	-0.006536636317207007;
Diff2	0.003603781058931163;
Diff3	-0.0006668433869256875;
Diff4	5.7178583759047503e-05;
Diff5	-1.7942809710730064e-06;
}
CH-O2
{
Diff1	-0.004840911470803045;
Diff2	0.002597163368970654;
Diff3	-0.0004714189925022352;
Diff4	3.955236610123081e-05;
Diff5	-1.2144982001669678e-06;
}
CH-OH
{
Diff1	-0.0064491412321975895;
Diff2	0.0035555432321935825;
Diff3	-0.0006579174629481383;
Diff4	5.641322910181453e-05;
Diff5	-1.7702639142048227e-06;
}
CH-H2O
{
Diff1	0.0007675940999478526;
Diff2	-0.0014142622839820756;
Diff3	0.0005243713799368481;
Diff4	-6.365337204596518e-05;
Diff5	2.670107514421895e-06;
}
CH-HO2
{
Diff1	-0.0048194861173913766;
Diff2	0.0025856686032878157;
Diff3	-0.00046933254275397434;
Diff4	3.9377311583680514e-05;
Diff5	-1.2091229617815488e-06;
}
CH-H2O2
{
Diff1	-0.004799243325319495;
Diff2	0.002574808285270382;
Diff3	-0.0004673612535226274;
Diff4	3.921191910978158e-05;
Diff5	-1.2040444068979743e-06;
}
CH-C
{
Diff1	-0.005568231006190066;
Diff2	0.0031021306171330814;
Diff3	-0.0005772007226896575;
Diff4	4.984014019802119e-05;
Diff5	-1.5740851722547806e-06;
}
CH-CH
{
Diff1	-0.006864074703032347;
Diff2	0.0037843045262813528;
Diff3	-0.0007002474362874237;
Diff4	6.004281885786418e-05;
Diff5	-1.8841615206835093e-06;
}
CH2-H2
{
Diff1	-0.008447738311224744;
Diff2	0.004726616207596373;
Diff3	-0.0008826822871589011;
Diff4	7.651055358051019e-05;
Diff5	-2.426174584485302e-06;
}
CH2-H
{
Diff1	-0.01472691718383836;
Diff2	0.006868063856140026;
Diff3	-0.0010316919789846006;
Diff4	6.942075261972995e-05;
Diff5	-1.5374288181419695e-06;
}
CH2-O
{
Diff1	-0.005058896442249034;
Diff2	0.002639523027725529;
Diff3	-0.0004680726669796251;
Diff4	3.829839943388926e-05;
Diff5	-1.1453783174492335e-06;
}
CH2-O2
{
Diff1	-0.0034843697755408817;
Diff2	0.0017482344000046975;
Diff3	-0.0002957091356594102;
Diff4	2.301394165675687e-05;
Diff5	-6.469380307097481e-07;
}
CH2-OH
{
Diff1	-0.004988368066887447;
Diff2	0.002602724237119737;
Diff3	-0.00046154705311701115;
Diff4	3.776446403477001e-05;
Diff5	-1.1294100775722328e-06;
}
CH2-H2O
{
Diff1	0.007268580879761559;
Diff2	-0.004893417625717668;
Diff3	0.001195871395881799;
Diff4	-0.00012183573771578285;
Diff5	4.543420430895715e-06;
}
CH2-HO2
{
Diff1	-0.003468116272093096;
Diff2	0.0017400794291802834;
Diff3	-0.00029432974432827834;
Diff4	2.2906588762237515e-05;
Diff5	-6.439202655954336e-07;
}
CH2-H2O2
{
Diff1	-0.0034527562659930643;
Diff2	0.0017323727583104698;
Diff3	-0.00029302618172718115;
Diff4	2.2805137335713778e-05;
Diff5	-6.410683948872036e-07;
}
CH2-C
{
Diff1	-0.004545493431346318;
Diff2	0.002397491039643515;
Diff3	-0.00042900518220804996;
Diff4	3.544732965243739e-05;
Diff5	-1.0711047193394854e-06;
}
CH2-CH
{
Diff1	-0.00532250620882684;
Diff2	0.0027770637062420464;
Diff3	-0.0004924630706754252;
Diff4	4.0294058418021896e-05;
Diff5	-1.2050618698483062e-06;
}
CH2-CH2
{
Diff1	-0.003222889798283331;
Diff2	0.0015077344512004786;
Diff3	-0.00022786189131772955;
Diff4	1.546061982418723e-05;
Diff5	-3.481236003011286e-07;
}
CH2*-H2
{
Diff1	-0.008447738311224744;
Diff2	0.004726616207596373;
Diff3	-0.0008826822871589011;
Diff4	7.651055358051019e-05;
Diff5	-2.426174584485302e-06;
}
CH2*-H
{
Diff1	-0.01472691718383836;
Diff2	0.006868063856140026;
Diff3	-0.0010316919789846006;
Diff4	6.942075261972995e-05;
Diff5	-1.5374288181419695e-06;
}
CH2*-O
{
Diff1	-0.005058896442249034;
Diff2	0.002639523027725529;
Diff3	-0.0004680726669796251;
Diff4	3.829839943388926e-05;
Diff5	-1.1453783174492335e-06;
}
CH2*-O2
{
Diff1	-0.0034843697755408817;
Diff2	0.0017482344000046975;
Diff3	-0.0002957091356594102;
Diff4	2.301394165675687e-05;
Diff5	-6.469380307097481e-07;
}
CH2*-OH
{
Diff1	-0.004988368066887447;
Diff2	0.002602724237119737;
Diff3	-0.00046154705311701115;
Diff4	3.776446403477001e-05;
Diff5	-1.1294100775722328e-06;
}
CH2*-H2O
{
Diff1	0.007268580879761559;
Diff2	-0.004893417625717668;
Diff3	0.001195871395881799;
Diff4	-0.00012183573771578285;
Diff5	4.543420430895715e-06;
}
CH2*-HO2
{
Diff1	-0.003468116272093096;
Diff2	0.0017400794291802834;
Diff3	-0.00029432974432827834;
Diff4	2.2906588762237515e-05;
Diff5	-6.439202655954336e-07;
}
CH2*-H2O2
{
Diff1	-0.0034527562659930643;
Diff2	0.0017323727583104698;
Diff3	-0.00029302618172718115;
Diff4	2.2805137335713778e-05;
Diff5	-6.410683948872036e-07;
}
CH2*-C
{
Diff1	-0.004545493431346318;
Diff2	0.002397491039643515;
Diff3	-0.00042900518220804996;
Diff4	3.544732965243739e-05;
Diff5	-1.0711047193394854e-06;
}
CH2*-CH
{
Diff1	-0.00532250620882684;
Diff2	0.0027770637062420464;
Diff3	-0.0004924630706754252;
Diff4	4.0294058418021896e-05;
Diff5	-1.2050618698483062e-06;
}
CH2*-CH2
{
Diff1	-0.003222889798283331;
Diff2	0.0015077344512004786;
Diff3	-0.00022786189131772955;
Diff4	1.546061982418723e-05;
Diff5	-3.481236003011286e-07;
}
CH2*-CH2*
{
Diff1	-0.003222889798283331;
Diff2	0.0015077344512004786;
Diff3	-0.00022786189131772955;
Diff4	1.546061982418723e-05;
Diff5	-3.481236003011286e-07;
}
CH3-H2
{
Diff1	-0.008412077590253492;
Diff2	0.004706663584124776;
Diff3	-0.000878956190826425;
Diff4	7.6187577015573e-05;
Diff5	-2.415932892374111e-06;
}
CH3-H
{
Diff1	-0.01469378234258485;
Diff2	0.0068526110493653414;
Diff3	-0.0010293707226389818;
Diff4	6.926455933151968e-05;
Diff5	-1.5339696787105463e-06;
}
CH3-O
{
Diff1	-0.004967714280918956;
Diff2	0.0025919479454345543;
Diff3	-0.0004596360686191001;
Diff4	3.76081044505491e-05;
Diff5	-1.124733880131165e-06;
}
CH3-O2
{
Diff1	-0.0034021962544733895;
Diff2	0.0017070049709941048;
Diff3	-0.0002887352888927501;
Diff4	2.2471193113421493e-05;
Diff5	-6.316809887352107e-07;
}
CH3-OH
{
Diff1	-0.004895872540601922;
Diff2	0.002554463895287837;
Diff3	-0.00045298893611101724;
Diff4	3.706422621566934e-05;
Diff5	-1.108468282955722e-06;
}
CH3-H2O
{
Diff1	0.007130274235954181;
Diff2	-0.004800305616673231;
Diff3	0.0011731163406724044;
Diff4	-0.00011951744584273342;
Diff5	4.456968172646252e-06;
}
CH3-HO2
{
Diff1	-0.0033855482714860254;
Diff2	0.0016986520755161729;
Diff3	-0.00028732241914219134;
Diff4	2.2361234718269436e-05;
Diff5	-6.285899811790138e-07;
}
CH3-H2O2
{
Diff1	-0.0033698119315598084;
Diff2	0.001690756584347057;
Diff3	-0.0002859869180962003;
Diff4	2.2257297641400693e-05;
Diff5	-6.256682370962947e-07;
}
CH3-C
{
Diff1	-0.00447465366942872;
Diff2	0.002360127066510022;
Diff3	-0.00042231930191191636;
Diff4	3.489489669194777e-05;
Diff5	-1.054411965417063e-06;
}
CH3-CH
{
Diff1	-0.005235916758916218;
Diff2	0.002731884910905064;
Diff3	-0.00048445141137116137;
Diff4	3.9638532578118626e-05;
Diff5	-1.1854572624852386e-06;
}
CH3-CH2
{
Diff1	-0.0031684108432665607;
Diff2	0.0014822480701930996;
Diff3	-0.00022401016863903236;
Diff4	1.5199277220303807e-05;
Diff5	-3.4223900258071664e-07;
}
CH3-CH2*
{
Diff1	-0.0031684108432665607;
Diff2	0.0014822480701930996;
Diff3	-0.00022401016863903236;
Diff4	1.5199277220303807e-05;
Diff5	-3.4223900258071664e-07;
}
CH3-CH3
{
Diff1	-0.0031129786204606396;
Diff2	0.0014563157308114115;
Diff3	-0.00022009104886676003;
Diff4	1.4933361667196599e-05;
Diff5	-3.3625143669851327e-07;
}
CH4-H2
{
Diff1	-0.00851770718316421;
Diff2	0.004774789309584139;
Diff3	-0.0008933760958238855;
Diff4	7.758387677784772e-05;
Diff5	-2.465298458494151e-06;
}
CH4-H
{
Diff1	-0.01525847391525131;
Diff2	0.007171553346777703;
Diff3	-0.0010934321534971769;
Diff4	7.508132867112089e-05;
Diff5	-1.7299888338772678e-06;
}
CH4-O
{
Diff1	-0.004964721496545437;
Diff2	0.0025954483506217194;
Diff3	-0.0004611578749598757;
Diff4	3.7809679492749525e-05;
Diff5	-1.1333521491075374e-06;
}
CH4-O2
{
Diff1	-0.0033880058596144793;
Diff2	0.0017046133386811454;
Diff3	-0.0002893576116036983;
Diff4	2.2608364330153663e-05;
Diff5	-6.388236454130568e-07;
}
CH4-OH
{
Diff1	-0.004890501295971759;
Diff2	0.0025566476450220228;
Diff3	-0.0004542637863376936;
Diff4	3.7244442953632776e-05;
Diff5	-1.1164090791039384e-06;
}
CH4-H2O
{
Diff1	0.010227084194968433;
Diff2	-0.0065692122338260025;
Diff3	0.0015445689978920863;
Diff4	-0.00015370589407257373;
Diff5	5.6256078850009e-06;
}
CH4-HO2
{
Diff1	-0.003370685101426932;
Diff2	0.001695898715190965;
Diff3	-0.00028787830683523375;
Diff4	2.2492781881875675e-05;
Diff5	-6.355577390463446e-07;
}
CH4-H2O2
{
Diff1	-0.003354309295397671;
Diff2	0.001687659527145541;
Diff3	-0.0002864797070953426;
Diff4	2.2383505155874317e-05;
Diff5	-6.324700076500593e-07;
}
CH4-C
{
Diff1	-0.00444610821900263;
Diff2	0.002347950778711066;
Diff3	-0.0004202690722410712;
Diff4	3.4742760291024535e-05;
Diff5	-1.0500430828090909e-06;
}
CH4-CH
{
Diff1	-0.005241498163870356;
Diff2	0.00274014116877905;
Diff3	-0.0004868668175123111;
Diff4	3.991751919536111e-05;
Diff5	-1.1965350347866324e-06;
}
CH4-CH2
{
Diff1	-0.0032282673392234128;
Diff2	0.00152146643174446;
Diff3	-0.00023316626479839673;
Diff4	1.6120173197591636e-05;
Diff5	-3.7622189905006184e-07;
}
CH4-CH2*
{
Diff1	-0.0032282673392234128;
Diff2	0.00152146643174446;
Diff3	-0.00023316626479839673;
Diff4	1.6120173197591636e-05;
Diff5	-3.7622189905006184e-07;
}
CH4-CH3
{
Diff1	-0.0031700053248431294;
Diff2	0.0014940078324981575;
Diff3	-0.00022895820677644717;
Diff4	1.5829245072963276e-05;
Diff5	-3.6943205068995674e-07;
}
CH4-CH4
{
Diff1	-0.003218266000764436;
Diff2	0.0015266706575428426;
Diff3	-0.0002367607090005079;
Diff4	1.6624459109509367e-05;
Diff5	-3.9905600098702216e-07;
}
CO-H2
{
Diff1	-0.007552382372447334;
Diff2	0.004382536463117674;
Diff3	-0.0008342910286395205;
Diff4	7.405795350756721e-05;
Diff5	-2.4000326541626337e-06;
}
CO-H
{
Diff1	-0.018227234425436663;
Diff2	0.009268724895269715;
Diff3	-0.001595865612762483;
Diff4	0.000126616635730458;
Diff5	-3.6498529239753805e-06;
}
CO-O
{
Diff1	-0.00424320226637935;
Diff2	0.002295373706313122;
Diff3	-0.0004190064359739198;
Diff4	3.53841927114132e-05;
Diff5	-1.0935204962563209e-06;
}
CO-O2
{
Diff1	-0.003012606872177881;
Diff2	0.001586258716628848;
Diff3	-0.00028368776034790386;
Diff4	2.3421232880603163e-05;
Diff5	-7.073714231653092e-07;
}
CO-OH
{
Diff1	-0.004162400090396908;
Diff2	0.002251663513276096;
Diff3	-0.00041102740748350555;
Diff4	3.471038090926042e-05;
Diff5	-1.0726968753185343e-06;
}
CO-H2O
{
Diff1	0.004779663684334366;
Diff2	-0.0033967761749647014;
Diff3	0.0008650159549829676;
Diff4	-9.017068732590561e-05;
Diff5	3.4216791280137493e-06;
}
CO-HO2
{
Diff1	-0.002991057226530687;
Diff2	0.0015749119612421779;
Diff3	-0.0002816584976616735;
Diff4	2.3253697157835085e-05;
Diff5	-7.023114853167222e-07;
}
CO-H2O2
{
Diff1	-0.002970642123593568;
Diff2	0.0015641625882377597;
Diff3	-0.0002797360713129368;
Diff4	2.3094981832386893e-05;
Diff5	-6.975179423716577e-07;
}
CO-C
{
Diff1	-0.0038650496604491734;
Diff2	0.0021129553244792387;
Diff3	-0.00038866313699104977;
Diff4	3.310311369254733e-05;
Diff5	-1.0318453343621914e-06;
}
CO-CH
{
Diff1	-0.004541779606290732;
Diff2	0.002456890064078643;
Diff3	-0.00044849025955831913;
Diff4	3.787403822687302e-05;
Diff5	-1.170467203103598e-06;
}
CO-CH2
{
Diff1	-0.0034566143427161265;
Diff2	0.001760157286217017;
Diff3	-0.0003036898299217368;
Diff4	2.4147078058569222e-05;
Diff5	-6.9804607661147e-07;
}
CO-CH2*
{
Diff1	-0.0034566143427161265;
Diff2	0.001760157286217017;
Diff3	-0.0003036898299217368;
Diff4	2.4147078058569222e-05;
Diff5	-6.9804607661147e-07;
}
CO-CH3
{
Diff1	-0.0033785247800070246;
Diff2	0.0017203929679653303;
Diff3	-0.00029682906858830195;
Diff4	2.3601563118056488e-05;
Diff5	-6.822762777489562e-07;
}
CO-CH4
{
Diff1	-0.003388657692698255;
Diff2	0.0017313628614536662;
Diff3	-0.00030019328821084;
Diff4	2.399055691995109e-05;
Diff5	-6.980961566630304e-07;
}
CO-CO
{
Diff1	-0.002879620619751388;
Diff2	0.0015275007674876758;
Diff3	-0.0002744357919908138;
Diff4	2.277761246749754e-05;
Diff5	-6.912933785715706e-07;
}
CO2-H2
{
Diff1	-0.009234380377004765;
Diff2	0.004916691326690408;
Diff3	-0.0008864232641281184;
Diff4	7.38384521393523e-05;
Diff5	-2.2498188612904236e-06;
}
CO2-H
{
Diff1	-0.005043109683932894;
Diff2	0.0007985177180840154;
Diff3	0.0003318333386670646;
Diff4	-6.373308072512684e-05;
Diff5	3.249562221427671e-06;
}
CO2-O
{
Diff1	-0.003595010400849434;
Diff2	0.0017188519409665527;
Diff3	-0.0002703091015149872;
Diff4	1.931871060381692e-05;
Diff5	-4.781324549272602e-07;
}
CO2-O2
{
Diff1	-0.0017007565307836203;
Diff2	0.0007060328635033101;
Diff3	-8.139234844684883e-05;
Diff4	3.1998674856636983e-06;
Diff5	2.9863041911962295e-08;
}
CO2-OH
{
Diff1	-0.003516009218003964;
Diff2	0.001681079773064853;
Diff3	-0.0002643689966555184;
Diff4	1.889417748197388e-05;
Diff5	-4.6762538393874734e-07;
}
CO2-H2O
{
Diff1	0.012710016677084853;
Diff2	-0.007722778249110672;
Diff3	0.0017270866437536976;
Diff4	-0.0001657539570637342;
Diff5	5.878340298090269e-06;
}
CO2-HO2
{
Diff1	-0.0016856522357122543;
Diff2	0.0006997626369822074;
Diff3	-8.066950891778264e-05;
Diff4	3.171449695041953e-06;
Diff5	2.9597830416111887e-08;
}
CO2-H2O2
{
Diff1	-0.0016713185656546663;
Diff2	0.0006938123190313682;
Diff3	-7.998354884844294e-05;
Diff4	3.1444817875673387e-06;
Diff5	2.9346150071325285e-08;
}
CO2-C
{
Diff1	-0.003650100111559049;
Diff2	0.001795665096311283;
Diff3	-0.0002957612149023907;
Diff4	2.233774274879445e-05;
Diff5	-6.026464790827874e-07;
}
CO2-CH
{
Diff1	-0.0038850557132019395;
Diff2	0.0018575288549434327;
Diff3	-0.00029211763029191127;
Diff4	2.0877343493990982e-05;
Diff5	-5.167081645274941e-07;
}
CO2-CH2
{
Diff1	-0.0009367536241294762;
Diff2	0.00016183992878577257;
Diff3	5.564033567920675e-05;
Diff4	-1.107277212137991e-05;
Diff5	5.7056771775911e-07;
}
CO2-CH2*
{
Diff1	-0.0009367536241294762;
Diff2	0.00016183992878577257;
Diff3	5.564033567920675e-05;
Diff4	-1.107277212137991e-05;
Diff5	5.7056771775911e-07;
}
CO2-CH3
{
Diff1	-0.0009126309944029862;
Diff2	0.0001576723391713929;
Diff3	5.420752433827799e-05;
Diff4	-1.0787633772125972e-05;
Diff5	5.558748535525761e-07;
}
CO2-CH4
{
Diff1	-0.0009922517340827978;
Diff2	0.0002096743761551633;
Diff3	4.190982710700831e-05;
Diff4	-9.551964332912796e-06;
Diff5	5.102985470330013e-07;
}
CO2-CO
{
Diff1	-0.0018510543496790702;
Diff2	0.0008094293077949584;
Diff3	-0.00010623186214087796;
Diff4	5.725919346745416e-06;
Diff5	-6.373067994918797e-08;
}
CO2-CO2
{
Diff1	0.001408117985267686;
Diff2	-0.0011150839032653807;
Diff3	0.0003053437140237065;
Diff4	-3.301368564890228e-05;
Diff5	1.2862608349751305e-06;
}
HCO-H2
{
Diff1	-0.009199803573294345;
Diff2	0.004439609246146135;
Diff3	-0.0007093917145174861;
Diff4	5.1700518968735346e-05;
Diff5	-1.3213375305565152e-06;
}
HCO-H
{
Diff1	0.02044531726110896;
Diff2	-0.014383624671693651;
Diff3	0.003635882780643922;
Diff4	-0.0003775132337772509;
Diff5	1.4283282571761861e-05;
}
HCO-O
{
Diff1	-0.0005820090044922681;
Diff2	-0.0002351230858153305;
Diff3	0.00018347109944546672;
Diff4	-2.587006689100466e-05;
Diff5	1.1733006724238546e-06;
}
HCO-O2
{
Diff1	0.00116617185513957;
Diff2	-0.0010812000766403946;
Diff3	0.0003225656500337577;
Diff4	-3.621692683673557e-05;
Diff5	1.4473948249577173e-06;
}
HCO-OH
{
Diff1	-0.0005707828176036426;
Diff2	-0.00023058787126816125;
Diff3	0.00017993218366342157;
Diff4	-2.5371067384930818e-05;
Diff5	1.1506692482965239e-06;
}
HCO-H2O
{
Diff1	0.016507549688806283;
Diff2	-0.009636921987442508;
Diff3	0.0020712207023523394;
Diff4	-0.000191662835975456;
Diff5	6.561370952399329e-06;
}
HCO-HO2
{
Diff1	0.0011576720388204401;
Diff2	-0.001073319589716518;
Diff3	0.0003202145825097445;
Diff4	-3.595295440043908e-05;
Diff5	1.43684527336412e-06;
}
HCO-H2O2
{
Diff1	0.0011496186381652555;
Diff2	-0.0010658529908824396;
Diff3	0.0003179869945179009;
Diff4	-3.570284596102972e-05;
Diff5	1.4268497907945985e-06;
}
HCO-C
{
Diff1	-0.001195211349273503;
Diff2	0.00017652543926566157;
Diff3	8.428504559131968e-05;
Diff4	-1.582444174078141e-05;
Diff5	8.01188034191632e-07;
}
HCO-CH
{
Diff1	-0.0006234690397157209;
Diff2	-0.0002518723308331599;
Diff3	0.0001965408598553007;
Diff4	-2.771294883303998e-05;
Diff5	1.2568820033458891e-06;
}
HCO-CH2
{
Diff1	0.003760344968445149;
Diff2	-0.002653326642776486;
Diff3	0.0006721747247034051;
Diff4	-6.987418234694711e-05;
Diff5	2.64603427382161e-06;
}
HCO-CH2*
{
Diff1	0.003760344968445149;
Diff2	-0.002653326642776486;
Diff3	0.0006721747247034051;
Diff4	-6.987418234694711e-05;
Diff5	2.64603427382161e-06;
}
HCO-CH3
{
Diff1	0.0036743858422230553;
Diff2	-0.002592673260794966;
Diff3	0.00065680923231603;
Diff4	-6.827690238772776e-05;
Diff5	2.5855475908314722e-06;
}
HCO-CH4
{
Diff1	0.003487819823960285;
Diff2	-0.002481902552982348;
Diff3	0.0006326281590742289;
Diff4	-6.597894239914734e-05;
Diff5	2.504602418250333e-06;
}
HCO-CO
{
Diff1	0.0006447048201742505;
Diff2	-0.0007645883733295685;
Diff3	0.0002524005477281655;
Diff4	-2.9472187034584176e-05;
Diff5	1.2077418184722481e-06;
}
HCO-CO2
{
Diff1	0.0063002147181117855;
Diff2	-0.0039515367575101695;
Diff3	0.0009098973930677104;
Diff4	-8.927538004611464e-05;
Diff5	3.2287509203782114e-06;
}
HCO-HCO
{
Diff1	0.010660132883233624;
Diff2	-0.0062869803477479495;
Diff3	0.0013655299863046294;
Diff4	-0.00012770660849074108;
Diff5	4.418795246050146e-06;
}
CH2O-H2
{
Diff1	-0.009189766632722775;
Diff2	0.00443476565423852;
Diff3	-0.0007086177716380567;
Diff4	5.164411395632569e-05;
Diff5	-1.3198959578002796e-06;
}
CH2O-H
{
Diff1	0.020433793019130182;
Diff2	-0.014375517173545101;
Diff3	0.003633833372816903;
Diff4	-0.0003773004440302539;
Diff5	1.4275231632575775e-05;
}
CH2O-O
{
Diff1	-0.00057852659144773;
Diff2	-0.000233716242102073;
Diff3	0.00018237331204248934;
Diff4	-2.571527502668052e-05;
Diff5	1.1662803040876826e-06;
}
CH2O-O2
{
Diff1	0.0011558608994096376;
Diff2	-0.0010716404169048503;
Diff3	0.00031971361744175344;
Diff4	-3.589670719860938e-05;
Diff5	1.434597376704367e-06;
}
CH2O-OH
{
Diff1	-0.0005672314876245164;
Diff2	-0.00022915318614344374;
Diff3	0.00017881267106185675;
Diff4	-2.5213212191498205e-05;
Diff5	1.1435099469544022e-06;
}
CH2O-H2O
{
Diff1	0.01640107407744033;
Diff2	-0.009574762722156826;
Diff3	0.0020578610884351024;
Diff4	-0.000190426588438969;
Diff5	6.519049348244321e-06;
}
CH2O-HO2
{
Diff1	0.0011472846955227307;
Diff2	-0.0010636891082980262;
Diff3	0.00031734142094831197;
Diff4	-3.563036245033254e-05;
Diff5	1.423953016621225e-06;
}
CH2O-H2O2
{
Diff1	0.0011391578627549875;
Diff2	-0.0010561544279069236;
Diff3	0.00031509352147952527;
Diff4	-3.537797348521667e-05;
Diff5	1.4138663937660777e-06;
}
CH2O-C
{
Diff1	-0.0011893237671209884;
Diff2	0.00017565587923357246;
Diff3	8.386985949609702e-05;
Diff4	-1.5746490923797194e-05;
Diff5	7.97241401330165e-07;
}
CH2O-CH
{
Diff1	-0.000620219460501664;
Diff2	-0.0002505595485678506;
Diff3	0.00019551647042207216;
Diff4	-2.7568506339221078e-05;
Diff5	1.250331016222312e-06;
}
CH2O-CH2
{
Diff1	0.003739719895419334;
Diff2	-0.0026387734418859654;
Diff3	0.0006684879212614832;
Diff4	-6.949093024526603e-05;
Diff5	2.631521070770099e-06;
}
CH2O-CH2*
{
Diff1	0.003739719895419334;
Diff2	-0.0026387734418859654;
Diff3	0.0006684879212614832;
Diff4	-6.949093024526603e-05;
Diff5	2.631521070770099e-06;
}
CH2O-CH3
{
Diff1	0.003653275507312585;
Diff2	-0.00257777765559855;
Diff3	0.0006530356866242376;
Diff4	-6.788463322010305e-05;
Diff5	2.5706929245266533e-06;
}
CH2O-CH4
{
Diff1	0.0034669136093001193;
Diff2	-0.002467025870657601;
Diff3	0.0006288361455080312;
Diff4	-6.558346040699206e-05;
Diff5	2.4895896714880186e-06;
}
CH2O-CO
{
Diff1	0.0006393675355948616;
Diff2	-0.000758258614968549;
Diff3	0.0002503110123233304;
Diff4	-2.9228197158946272e-05;
Diff5	1.1977433485351108e-06;
}
CH2O-CO2
{
Diff1	0.0062361587094887285;
Diff2	-0.003911360400998483;
Diff3	0.0009006462170578558;
Diff4	-8.836769280527906e-05;
Diff5	3.1959233254381214e-06;
}
CH2O-HCO
{
Diff1	0.01057028668283052;
Diff2	-0.006233992143712366;
Diff3	0.0013540209664685795;
Diff4	-0.00012663026604127977;
Diff5	4.381552561784891e-06;
}
CH2O-CH2O
{
Diff1	0.010479670224845174;
Diff2	-0.006180549668204829;
Diff3	0.0013424132790239526;
Diff4	-0.0001255446960348472;
Diff5	4.343990593453104e-06;
}
CH2OH-H2
{
Diff1	-0.009350017225986074;
Diff2	0.004591762375903495;
Diff3	-0.0007543758506969137;
Diff4	5.680847939666078e-05;
Diff5	-1.5261650907351044e-06;
}
CH2OH-H
{
Diff1	0.012155935369603245;
Diff2	-0.009487825774976979;
Diff3	0.0025748393841015034;
Diff4	-0.00027720871561380046;
Diff5	1.076837678685528e-05;
}
CH2OH-O
{
Diff1	-0.001625944039024663;
Diff2	0.0004244837267775578;
Diff3	3.2775711894751804e-05;
Diff4	-1.1066474022160325e-05;
Diff5	6.381982614923878e-07;
}
CH2OH-O2
{
Diff1	0.0005736194979668666;
Diff2	-0.0007155326930996214;
Diff3	0.000240226816071478;
Diff4	-2.8220243540794195e-05;
Diff5	1.1607496545812498e-06;
}
CH2OH-OH
{
Diff1	-0.0015938330802112907;
Diff2	0.0004161005480600129;
Diff3	3.212842052978095e-05;
Diff4	-1.0847920933480298e-05;
Diff5	6.2559440944883e-07;
}
CH2OH-H2O
{
Diff1	0.012641445399085892;
Diff2	-0.007248687652153323;
Diff3	0.0015231353900942042;
Diff4	-0.00013663501289315767;
Diff5	4.5189033843196334e-06;
}
CH2OH-HO2
{
Diff1	0.0001671970634337986;
Diff2	-0.0004691485777061133;
Diff3	0.00018572951698524802;
Diff4	-2.2984627444861843e-05;
Diff5	9.748139880841842e-07;
}
CH2OH-H2O2
{
Diff1	0.00016599215064351273;
Diff2	-0.0004657676384135244;
Diff3	0.0001843910492768291;
Diff4	-2.281898774405727e-05;
Diff5	9.677889493834005e-07;
}
CH2OH-C
{
Diff1	-0.0021212017674644406;
Diff2	0.0007656529072492542;
Diff3	-5.1076210484778285e-05;
Diff4	-2.447424042192401e-06;
Diff5	3.148502201944958e-07;
}
CH2OH-CH
{
Diff1	-0.0017444141622205394;
Diff2	0.0004554126137538829;
Diff3	3.516382767837359e-05;
Diff4	-1.1872803458400274e-05;
Diff5	6.846988942509533e-07;
}
CH2OH-CH2
{
Diff1	0.002214056740811106;
Diff2	-0.0017390433659006516;
Diff3	0.0004738106535924743;
Diff4	-5.110650843752592e-05;
Diff5	1.9878798667328504e-06;
}
CH2OH-CH2*
{
Diff1	0.002214056740811106;
Diff2	-0.0017390433659006516;
Diff3	0.0004738106535924743;
Diff4	-5.110650843752592e-05;
Diff5	1.9878798667328504e-06;
}
CH2OH-CH3
{
Diff1	0.0021623371451812657;
Diff2	-0.001698419917547814;
Diff3	0.00046274260147149434;
Diff4	-4.991267817050275e-05;
Diff5	1.9414436842458088e-06;
}
CH2OH-CH4
{
Diff1	0.0026479330095483668;
Diff2	-0.0019809116839796794;
Diff3	0.0005229295885854268;