/*--------------------------------*- C++ -*----------------------------------*\
| =========                 |                                                 |
| \\      /  F ield         | OpenFOAM: The Open Source CFD Toolbox           |
|  \\    /   O peration     | Version:  2.3.0                                 |
|   \\  /    A nd           | Web:      www.OpenFOAM.org                      |
|    \\/     M anipulation  |                                                 |
\*---------------------------------------------------------------------------*/
FoamFile
{
    version     2.0;
    format      ascii;
    class       dictionary;
    location    "constant";
    object      speciesMu;
}

H2
{
Mu1  -0.00044135740261480713;
Mu2  0.0005414323063317691;
Mu3  -0.00010356810956996873;
Mu4  9.673877158687428e-06;
Mu5  -3.323040125664145e-07;
}
H
{
Mu1  -0.00504075416932425;
Mu2  0.0027795884377933414;
Mu3  -0.0005061207842487856;
Mu4  4.180696339183594e-05;
Mu5  -1.289410641969189e-06;
}
O
{
Mu1  -0.005113842127961691;
Mu2  0.0032001963038242893;
Mu3  -0.0006236621234949299;
Mu4  5.549771069549728e-05;
Mu5  -1.842393421469286e-06;
}
O2
{
Mu1  -0.006280860305787691;
Mu2  0.0036755258105182066;
Mu3  -0.0006989155537477931;
Mu4  6.042267922488221e-05;
Mu5  -1.951788060135764e-06;
}
OH
{
Mu1  -0.005192554158034238;
Mu2  0.003249453582677288;
Mu3  -0.0006332615030987305;
Mu4  5.635192898459962e-05;
Mu5  -1.870751458884235e-06;
}
H2O
{
Mu1  0.0062144659897519034;
Mu2  -0.003007552407908267;
Mu3  0.000531748893035712;
Mu4  -3.274425664684852e-05;
Mu5  4.616673944991318e-07;
}
HO2
{
Mu1  -0.006329751342650784;
Mu2  0.00370413658342973;
Mu3  -0.0007043560036915194;
Mu4  6.089301725066217e-05;
Mu5  -1.966981033280285e-06;
}
H2O2
{
Mu1  -0.0063775350277153284;
Mu2  0.0037320993399975228;
Mu3  -0.0007096732308057399;
Mu4  6.135270241102085e-05;
Mu5  -1.98182989498703e-06;
}
C
{
Mu1  -0.0035540188931775774;
Mu2  0.0022928689901715944;
Mu3  -0.000451129223221435;
Mu4  4.061835870705209e-05;
Mu5  -1.3635254580599553e-06;
}
CH
{
Mu1  -0.00485700458801776;
Mu2  0.003039469686648265;
Mu3  -0.0005923393251867662;
Mu4  5.271039440161996e-05;
Mu5  -1.7498610784397215e-06;
}
CH2
{
Mu1  -0.005267347777981565;
Mu2  0.0029092399132644125;
Mu3  -0.0005308456163325929;
Mu4  4.394447604234503e-05;
Mu5  -1.3585567006441286e-06;
}
CH2*
{
Mu1  -0.005267347777981565;
Mu2  0.0029092399132644125;
Mu3  -0.0005308456163325929;
Mu4  4.394447604234503e-05;
Mu5  -1.3585567006441286e-06;
}
CH3
{
Mu1  -0.0053595293378081235;
Mu2  0.002960153254175276;
Mu3  -0.0005401357143109005;
Mu4  4.47135291822722e-05;
Mu5  -1.382332209890091e-06;
}
CH4
{
Mu1  -0.005543878464128703;
Mu2  0.0030742540658905424;
Mu3  -0.0005635658368386417;
Mu4  4.687671510405932e-05;
Mu5  -1.456701236238072e-06;
}
CO
{
Mu1  -0.005329781885201365;
Mu2  0.0031791439469309045;
Mu3  -0.0006091101173592121;
Mu4  5.311925117997474e-05;
Mu5  -1.730041073744921e-06;
}
CO2
{
Mu1  -0.0014349894502325945;
Mu2  0.0002357128251134061;
Mu3  0.00013735100493931997;
Mu4  -2.593114708180147e-05;
Mu5  1.2906288456320004e-06;
}
HCO
{
Mu1  0.021384336143402263;
Mu2  -0.012689994066573448;
Mu3  0.002825328932738859;
Mu4  -0.0002714733264715317;
Mu5  9.625201201260566e-06;
}
CH2O
{
Mu1  0.02156767216564963;
Mu2  -0.012798790197482148;
Mu3  0.0028495515489833185;
Mu4  -0.00027380077023620277;
Mu5  9.707721700827159e-06;
}
CH2OH
{
Mu1  0.016504188093558112;
Mu2  -0.009851100496331078;
Mu3  0.002215852502989547;
Mu4  -0.00021399935874683647;
Mu5  7.611174710776604e-06;
}
CH3O
{
Mu1  0.016504188093558112;
Mu2  -0.009851100496331078;
Mu3  0.002215852502989547;
Mu4  -0.00021399935874683647;
Mu5  7.611174710776604e-06;
}
CH3OH
{
Mu1  0.02087080262766099;
Mu2  -0.012444199825955802;
Mu3  0.0027848969734597935;
Mu4  -0.000268734700058278;
Mu5  9.564807715775867e-06;
}
C2H
{
Mu1  0.000606076449787594;
Mu2  -0.0009087753321355773;
Mu3  0.00036445361968696937;
Mu4  -4.6077964096730326e-05;
Mu5  1.958662172118126e-06;
}
C2H2
{
Mu1  0.0006120883341050062;
Mu2  -0.0009177897925628602;
Mu3  0.0003680687626348471;
Mu4  -4.653502754176538e-05;
Mu5  1.978090827390322e-06;
}
H2CC
{
Mu1  -0.0035751432343579387;
Mu2  0.0016725774613679857;
Mu3  -0.00021945685899938923;
Mu4  1.1140575343801769e-05;
Mu5  -1.088282868323492e-07;
}
C2H3
{
Mu1  0.00061792811780812;
Mu2  -0.0009265461984465022;
Mu3  0.00037158041585621897;
Mu4  -4.69790067543603e-05;
Mu5  1.99696330376975e-06;
}
C2H4
{
Mu1  -0.0019145491697450956;
Mu2  0.0005489332024035725;
Mu3  6.117289582170832e-05;
Mu4  -1.8116459172742954e-05;
Mu5  9.982325317985003e-07;
}
C2H5
{
Mu1  -0.0008516760593082266;
Mu2  2.3056574272877062e-05;
Mu3  0.00014240132466510544;
Mu4  -2.3608340314213524e-05;
Mu5  1.1268072002238592e-06;
}
C2H6
{
Mu1  -0.000858966886162506;
Mu2  2.325395152685919e-05;
Mu3  0.0001436203602307635;
Mu4  -2.381044100768004e-05;
Mu5  1.1364533046714107e-06;
}
HCCO
{
Mu1  -0.010249737235948941;
Mu2  0.005605087459092435;
Mu3  -0.0010089340817718403;
Mu4  8.23522060870534e-05;
Mu5  -2.506407806709284e-06;
}
CH2CO
{
Mu1  0.01737021520474073;
Mu2  -0.010527152286980937;
Mu3  0.0023982915058114985;
Mu4  -0.0002346556701569861;
Mu5  8.452151447096732e-06;
}
HCCOH
{
Mu1  0.01737021520474073;
Mu2  -0.010527152286980937;
Mu3  0.0023982915058114985;
Mu4  -0.0002346556701569861;
Mu5  8.452151447096732e-06;
}
C2O
{
Mu1  -0.0024785529939540182;
Mu2  0.0008914227985145186;
Mu3  -1.4785651375833166e-05;
Mu4  -1.0767155040422536e-05;
Mu5  7.351881200406921e-07;
}
CH2CHO
{
Mu1  0.01747342130706041;
Mu2  -0.010589699949349477;
Mu3  0.002412541088533697;
Mu4  -0.0002360498899066573;
Mu5  8.502370376246795e-06;
}
CH3CHO
{
Mu1  0.01757483039953662;
Mu2  -0.01065115854080542;
Mu3  0.0024265425595705057;
Mu4  -0.0002374198337026247;
Mu5  8.551714900629041e-06;
}
CH3CO
{
Mu1  0.01747342130706041;
Mu2  -0.010589699949349477;
Mu3  0.002412541088533697;
Mu4  -0.0002360498899066573;
Mu5  8.502370376246795e-06;
}
C3H2
{
Mu1  -0.003930767459854362;
Mu2  0.001838950953364654;
Mu3  -0.00024128652298747853;
Mu4  1.2248743106334274e-05;
Mu5  -1.1965358045098666e-07;
}
C3H3
{
Mu1  0.0062948659614516;
Mu2  -0.00421537113672969;
Mu3  0.001068878164276146;
Mu4  -0.00011202548466580883;
Mu5  4.252692106131239e-06;
}
pC3H4
{
Mu1  -0.0005135631167407456;
Mu2  -0.0001751828485371773;
Mu3  0.00018440606300944428;
Mu4  -2.7534041426151552e-05;
Mu5  1.263197615865884e-06;
}
aC3H4
{
Mu1  -0.0005135631167407456;
Mu2  -0.0001751828485371773;
Mu3  0.00018440606300944428;
Mu4  -2.7534041426151552e-05;
Mu5  1.263197615865884e-06;
}
cC3H4
{
Mu1  -0.0005135631167407456;
Mu2  -0.0001751828485371773;
Mu3  0.00018440606300944428;
Mu4  -2.7534041426151552e-05;
Mu5  1.263197615865884e-06;
}
aC3H5
{
Mu1  0.005608480327311702;
Mu2  -0.003836222655274342;
Mu3  0.0009934842166806255;
Mu4  -0.00010536257033418065;
Mu5  4.032961882711685e-06;
}
CH3CCH2
{
Mu1  0.005608480327311702;
Mu2  -0.003836222655274342;
Mu3  0.0009934842166806255;
Mu4  -0.00010536257033418065;
Mu5  4.032961882711685e-06;
}
CH3CHCH
{
Mu1  0.005608480327311702;
Mu2  -0.003836222655274342;
Mu3  0.0009934842166806255;
Mu4  -0.00010536257033418065;
Mu5  4.032961882711685e-06;
}
C3H6
{
Mu1  0.004914635642900882;
Mu2  -0.0034487079734462217;
Mu3  0.0009153202676688344;
Mu4  -9.836232835119343e-05;
Mu5  3.7990186543379167e-06;
}
C2H3CHO
{
Mu1  0.014736463259449472;
Mu2  -0.008719782926954371;
Mu3  0.0019431024428157616;
Mu4  -0.00018605648707428757;
Mu5  6.563730816305013e-06;
}
nC3H7
{
Mu1  0.0038595439047986527;
Mu2  -0.002756004736799208;
Mu3  0.0007433619507136124;
Mu4  -8.055554314377875e-05;
Mu5  3.1287411985566344e-06;
}
iC3H7
{
Mu1  0.0038595439047986527;
Mu2  -0.002756004736799208;
Mu3  0.0007433619507136124;
Mu4  -8.055554314377875e-05;
Mu5  3.1287411985566344e-06;
}
C3H8
{
Mu1  0.0038819205539758045;
Mu2  -0.0027719833479192156;
Mu3  0.0007476717733267002;
Mu4  -8.102258359585659e-05;
Mu5  3.1468808404356064e-06;
}
A1
{
Mu1  0.01699420872264938;
Mu2  -0.010188228890381179;
Mu3  0.0022936365316668646;
Mu4  -0.00022238594216493954;
Mu5  7.948349427913627e-06;
}
A1-
{
Mu1  0.016939117169862405;
Mu2  -0.010155200853661953;
Mu3  0.0022862010576112897;
Mu4  -0.0002216650149908066;
Mu5  7.922582596448394e-06;
}
N2
{
Mu1  -0.005349912337329212;
Mu2  0.0031950685178390352;
Mu3  -0.0006125055865557548;
Mu4  5.344876287075944e-05;
Mu5  -1.7418174930263008e-06;
}
