/*--------------------------------*- C++ -*----------------------------------*\
| =========                 |                                                 |
| \\      /  F ield         | OpenFOAM: The Open Source CFD Toolbox           |
|  \\    /   O peration     | Version:  2.3.1                                 |
|   \\  /    A nd           | Web:      www.OpenFOAM.org                      |
|    \\/     M anipulation  |                                                 |
\*---------------------------------------------------------------------------*/
FoamFile {
  version     2.0;
  format      ascii;
  class       dictionary;
  object      fvSolution;
}
// * * * * * * * * * * * * * * * * * * * * * * * * * * * * * * * * * * * * * //

solvers {

  "rho.*"
  {
    solver          diagonal;
  }

  p_rgh
  {
    solver           PCG;
    preconditioner   DIC;
    tolerance        1e-12;
    relTol           1e-6;
  }

  p_rghFinal
  {
    $p_rgh;
    tolerance        1e-12;
    relTol           0;
  }

  "(U|h|Yi)"
  {
    solver           PBiCGStab;
    preconditioner   DILU;
    tolerance        1e-12;
    relTol           1e-6;
  }

  "(U|h|Yi)Final"
  {
    $U;
    tolerance        1e-12;
    relTol           0;
  }

  cellMotionU
  {
    solver          PBiCGStab;
    preconditioner  DIC;
    tolerance       1e-12;
    relTol          1e-8;
  };
}

PIMPLE {
  momentumPredictor   yes;
  nCorrectors         3;
  nOuterCorrectors    2;
  nNonOrthogonalCorrectors 1;
}

relaxationFactors {
  fields
  {
  }
  equations
  {
    "h.*"             0.5;
    "U.*"             0.5;
    "Yi.*"            0.5;
    "cellMotionU.*"   0.5;
  }
}

// ************************************************************************* //
