/*--------------------------------*- C++ -*----------------------------------*\

  =========                 |

  \\      /  F ield         | OpenFOAM: The Open Source CFD Toolbox

   \\    /   O peration     | Website:  https://openfoam.org

    \\  /    A nd           | Version:  7

     \\/     M anipulation  |

\*---------------------------------------------------------------------------*/

FoamFile

{

    version     2.0;

    format      ascii;

    class       dictionary;

    location    "system";

    object      setFieldsDict;

}

// * * * * * * * * * * * * * * * * * * * * * * * * * * * * * * * * * * * * * //

defaultFieldValues

(

    volVectorFieldValue U ( 0.25 0 0 )

    volScalarFieldValue T 300

    // Default values for species mass fractions (outside the box region)

    volScalarFieldValue CH4 0.055166413925209386

    volScalarFieldValue O2 0.22006045163346646

    volScalarFieldValue H2O 0.0

    volScalarFieldValue CO2 0.0

);

regions

(

    boxToCell

    {

        box (0.0 -1.0 -1.0) (2.0 1.0 1.0);

        fieldValues

        (

            volVectorFieldValue U ( 1.5 0 0 )

            volScalarFieldValue T 2200

            // Set CH4 and O2 in the high-temperature region

            volScalarFieldValue CH4 0

            volScalarFieldValue O2 0

            // Ensure products are zero in this high-temperature region

            volScalarFieldValue H2O 0.1209443163541327

            volScalarFieldValue CO2 0.13676082146974494

        );

    }

);

// ************************************************************************* //
