/*--------------------------------*- C++ -*----------------------------------*\
  =========                 |
  \\      /  F ield         | OpenFOAM: The Open Source CFD Toolbox
   \\    /   O peration     | Website:  https://openfoam.org
    \\  /    A nd           | Version:  7
     \\/     M anipulation  |
\*---------------------------------------------------------------------------*/
FoamFile
{
    version     2.0;
    format      ascii;
    class       polyBoundaryMesh;
    location    "constant/flow/polyMesh";
    object      boundary;
}
// * * * * * * * * * * * * * * * * * * * * * * * * * * * * * * * * * * * * * //

3
(
    f_frontAndBack
    {
        type            empty;
        physicalType    empty;
        inGroups        List<word> 1(empty);
        nFaces          16;
        startFace       12;
    }
    f_side
    {
        type            patch;
        physicalType    patch;
        nFaces          4;
        startFace       28;
    }
    flow_to_porousMat
    {
        type            mappedWall;
        inGroups        List<word> 1(wall);
        nFaces          4;
        startFace       32;
        sampleMode      nearestPatchFace;
        sampleRegion    porousMat;
        samplePatch     porousMat_to_flow;
    }
)

// ************************************************************************* //
