/*--------------------------------*- C++ -*----------------------------------*\
| =========                 |                                                 |
| \\      /  F ield         | OpenFOAM: The Open Source CFD Toolbox           |
|  \\    /   O peration     | Version:  5.0                                   |
|   \\  /    A nd           | Web:      www.OpenFOAM.org                      |
|    \\/     M anipulation  |                                                 |
\*---------------------------------------------------------------------------*/
FoamFile {
  version     4.0;
  format      ascii;
  class       dictionary;
  location    "constant/porousMat";
  object      porousMatProperties;
}

// * * * * * * * * * * * * * * * * * * * * * * * * * * * * * * * * * * * * * //

/****************************** GENERAL ************************************/
movingMesh      no;
/****************************** end GENERAL ********************************/

/****************************** IO *****************************************/
IO {
  writeFields (
    tau
    piTotal
    rho_v
    rho_c
    normFp_sum
    rho_s
    k
    cp
    pyrolysisFlux
    M_g
    mu_g
    h_g
    eps_g
    rho_g
    K
    vG
    U
    mDotG
    mDotGw
    one
    Xsi[2][1]
    Xsi[2][2]
    Xsi[2][3]
    AField[0]
    AField[1]
    AField[2]
    epsI_s[1]
    eps_s[1]
    rhoI_s[1]
    rho_s[1]
    epsI_s[2]
    eps_s[2]
    rhoI_s[2]
    rho_s[2]
    normFp[0]
    normFp[1]
    normFp[2]
    kijk
    k_abl_sym
    h_bar
); // write fields in the time folders
  probingFunctions (); // name of sampling/probing dictionaries in "system/porousMat"
}
/****************************** END IO ************************************/

/****************************** MASS, ENERGY, PYROLYSIS *******************/
MaterialProperties {
  MaterialPropertiesType Porous; // porous material properties
  MaterialPropertiesDirectory "$PATO_DIR/data/Materials/Composites/TACOT"; // material properties file
  detailedSolidEnthalpies yes;
}

Pyrolysis {
  PyrolysisType LinearArrhenius; // PATO pyrolysis
}

Mass {
  MassType DarcyLaw; // Solve the semi implicit pressure equation
}

Energy {
  EnergyType Pyrolysis; // Solve the temperature equation
}
/****************************** END MASS, ENERGY, PYROLYSIS ****************/

/****************************** GAS PROPERTIES  ************************************/
GasProperties {
  GasPropertiesType Tabulated; // tabulated gas properties
  GasPropertiesFile "$PATO_DIR/data/Materials/Composites/TACOT/gasProperties"; // tabulated gas properties file
}
/****************************** END GAS PROPERTIES **************************/

/****************************** TIME CONTROL  **********************************/
TimeControl {
  TimeControlType GradP; // change the integration time step in function of the gradient of the pressure and the species mass fractions
  chemTransEulerStepLimiter no;
}
/****************************** END TIME CONTROL  ******************************/
