/*--------------------------------*- C++ -*----------------------------------*\
  =========                 |
  \\      /  F ield         | OpenFOAM: The Open Source CFD Toolbox
   \\    /   O peration     | Website:  https://openfoam.org
    \\  /    A nd           | Version:  7
     \\/     M anipulation  |
\*---------------------------------------------------------------------------*/
FoamFile
{
    version     2.0;
    format      ascii;
    class       dictionary;
    location    "system";
    object      controlDict;
}
// * * * * * * * * * * * * * * * * * * * * * * * * * * * * * * * * * * * * * //

application     reactingFoam;

startFrom       latestTime;
/*startFrom       startTime;*/

startTime       0;

stopAt          endTime;

endTime         5;

deltaT          1e-7;

maxDeltaT       1e-4;

writeControl    adjustableRunTime;
writeInterval   5e-3;

//writeControl    timeStep;
//writeInterval   25;

purgeWrite      0;

writeFormat     binary;

writePrecision  12;

writeCompression off;

timeFormat      fixed;
/*timeFormat      general;*/

timePrecision   6;

runTimeModifiable true;

adjustTimeStep  yes;

maxCo           0.6;

functions
{
    wallHeatFlux1
    {
        type            wallHeatFlux;
        libs            ("libfieldFunctionObjects.so");

        // Optional entries (runtime modifiable)
        patches         ("wall");
        qr              qr;

        // Optional (inherited) entries
        writePrecision  8;
        writeToFile     true;
        //region          flow;
        writeControl    writeTime;
    }
}


// ************************************************************************* //
