/*--------------------------------*- C++ -*----------------------------------*\
  =========                 |
  \\      /  F ield         | OpenFOAM: The Open Source CFD Toolbox
   \\    /   O peration     | Website:  https://openfoam.org
    \\  /    A nd           | Version:  7
     \\/     M anipulation  |
\*---------------------------------------------------------------------------*/
FoamFile
{
    version     2.0;
    format      ascii;
    class       dictionary;
    location    "system";
    object      controlDict;
}
// * * * * * * * * * * * * * * * * * * * * * * * * * * * * * * * * * * * * * //

application       reactingFoam;

startFrom         latestTime;
/*startFrom       startTime;*/

startTime         0;

stopAt            endTime;
/*stopAt          writeNow;*/

endTime           30.0;

deltaT            1e-6;

writeControl      adjustableRunTime;
writeInterval     0.1;

purgeWrite        0;

// For cfd coupled simulation, allow the flow to adjust to the solid temperature
delaySolid        0.05; // time in seconds

/*writeFormat     binary;*/
writeFormat       ascii;

writePrecision    15;

writeCompression  off;

timeFormat        fixed;

timePrecision     6;

runTimeModifiable true;

//LTS               1; // everything else down here wrt time is ignored
//adjustTimeStep    no;
LTS             0;
adjustTimeStep    yes;

adjustStartTime 0;

maxCo             1.0;

maxDeltaT       6e-6; // reduce it if the surface temperature starts oscillating

minDeltaT       1e-7;

minChemDeltaT   1e-7; // Minimum time step for species equation

REVlength       1e3;

dYtolMin        0.05; // Min variation of mass fractions in species equation
dYtolMax        0.1; // Max
Ythreshold      0.001; // Species below this mass fraction are ignored for the time step optimization
/* End adjustable time step */

functions
{

}

// ************************************************************************* //
