! generator: yaml2ck
! cantera-version: 3.2.0a1
! date: Wed, 05 Feb 2025 13:05:46 -0600
! input-files: ['wang99_51sp.yaml']
!

ELEM
O H C N
END

SPECIES
H2  H  O  O2  OH  H2O  HO2  H2O2  C  CH  CH2  CH2*  CH3  CH4  CO  CO2  HCO  CH2O
CH2OH  CH3O  CH3OH  C2H  C2H2  H2CC  C2H3  C2H4  C2H5  C2H6  HCCO  CH2CO  HCCOH
C2O  CH2CHO  CH3CHO  CH3CO  C3H2  C3H3  pC3H4  aC3H4  cC3H4  aC3H5  CH3CCH2
CH3CHCH  C3H6  C2H3CHO  nC3H7  iC3H7  C3H8  A1  A1-  N2
END

REACTIONS
H + O2 <=> O + OH                  83000000000000.02 0.0 14413.0
H2 + O <=> H + OH                  50000.00000000001 2.67 6290.0
H2 + OH <=> H + H2O                216000000.00000003 1.51 3430.0
2 OH <=> H2O + O                   35700.0 2.4 -2110.0
2 H + M <=> H2 + M                 1.0000000000000003e+18 -1.0 0.0
C2H2/3.000E+00/ C2H4/3.000E+00/ C2H6/3.000E+00/ CH4/2.000E+00/ CO2/0.000E+00/ H2/0.000E+00/ H2O/0.000E+00/
2 H + H2 <=> H2 + H2               9.000000000000002e+16 -0.6 0.0
2 H + H2O <=> H2 + H2O             6.000000000000001e+19 -1.25 0.0
2 H + CO2 <=> H2 + CO2             5.500000000000001e+20 -2.0 0.0
H + OH + M <=> H2O + M             2.2000000000000004e+22 -2.0 0.0
C2H2/3.000E+00/ C2H4/3.000E+00/ C2H6/3.000E+00/ CH4/2.000E+00/ H2/7.300E-01/ H2O/3.650E+00/
H + O + M <=> OH + M               5.000000000000001e+17 -1.0 0.0
C2H2/3.000E+00/ C2H4/3.000E+00/ C2H6/3.000E+00/ CH4/2.000E+00/ CO/1.500E+00/ CO2/2.000E+00/ H2/2.000E+00/ H2O/6.000E+00/
2 O + M <=> O2 + M                 1.2000000000000002e+17 -1.0 0.0
C2H2/3.000E+00/ C2H4/3.000E+00/ C2H6/3.000E+00/ CH4/2.000E+00/ CO/1.750E+00/ CO2/3.600E+00/ H2/2.400E+00/ H2O/1.540E+01/
H + O2 + M <=> HO2 + M             2.8000000000000005e+18 -0.86 0.0
C2H2/3.000E+00/ C2H4/3.000E+00/ C2H6/1.500E+00/ CO/7.500E-01/ CO2/1.500E+00/ H2O/0.000E+00/ N2/0.000E+00/ O2/0.000E+00/
H + O2 + O2 <=> HO2 + O2           3.0000000000000007e+20 -1.72 0.0
H + O2 + H2O <=> HO2 + H2O         1.6520000000000004e+19 -0.76 0.0
H + O2 + N2 <=> HO2 + N2           2.6000000000000004e+19 -1.24 0.0
2 OH (+M) <=> H2O2 (+M)            74000000000000.02 -0.37 0.0
LOW /2.3000000000000005e+18 -0.9 -1700.0/
TROE /0.7346 94 1756 5182/
C2H2/3.000E+00/ C2H4/3.000E+00/ C2H6/3.000E+00/ CH4/2.000E+00/ CO/1.500E+00/ CO2/2.000E+00/ H2/2.000E+00/ H2O/6.000E+00/
H + HO2 <=> H2O + O                3970000000000.0005 0.0 671.0
H + HO2 <=> H2 + O2                16600000000000.002 0.0 820.0
H + HO2 <=> 2 OH                   70800000000000.02 0.0 300.0
HO2 + O <=> O2 + OH                20000000000000.004 0.0 0.0
HO2 + OH <=> H2O + O2              46400000000000.01 0.0 -500.0
2 HO2 <=> H2O2 + O2                130000000000.00002 0.0 -1630.0
DUPLICATE
2 HO2 <=> H2O2 + O2                420000000000000.06 0.0 12000.0
DUPLICATE
H + H2O2 <=> H2 + HO2              12100000.000000002 2.0 5200.0
H + H2O2 <=> H2O + OH              10000000000000.002 0.0 3600.0
H2O2 + O <=> HO2 + OH              9630000.0 2.0 4000.0
H2O2 + OH <=> H2O + HO2            1750000000000.0002 0.0 320.0
DUPLICATE
H2O2 + OH <=> H2O + HO2            580000000000000.1 0.0 9560.0
DUPLICATE
CO + O + M <=> CO2 + M             602000000000000.1 0.0 3000.0
C2H2/3.000E+00/ C2H4/3.000E+00/ C2H6/3.000E+00/ CH4/2.000E+00/ CO/1.500E+00/ CO2/3.500E+00/ H2/2.000E+00/ H2O/6.000E+00/ O2/6.000E+00/
CO + OH <=> CO2 + H                47600000.00000001 1.228 70.0
CO + H2 (+M) <=> CH2O (+M)         43000000.00000001 1.5 79600.0
LOW /5.070000000000001e+27 -3.42 84350.0/
TROE /0.932 197 1540 10300/
C2H2/3.000E+00/ C2H4/3.000E+00/ C2H6/3.000E+00/ CH4/2.000E+00/ CO/1.500E+00/ CO2/2.000E+00/ H2/2.000E+00/ H2O/6.000E+00/
CO + O2 <=> CO2 + O                2500000000000.0005 0.0 47800.0
CO + HO2 <=> CO2 + OH              150000000000000.03 0.0 23600.0
C + OH <=> CO + H                  50000000000000.01 0.0 0.0
C + O2 <=> CO + O                  58000000000000.01 0.0 576.0
CH + H <=> C + H2                  110000000000000.02 0.0 0.0
CH + O <=> CO + H                  57000000000000.01 0.0 0.0
CH + OH <=> H + HCO                30000000000000.004 0.0 0.0
CH + H2 <=> CH2 + H                110700000.00000001 1.79 1670.0
CH + H2O <=> CH2O + H              5710000000000.001 0.0 -755.0
CH + O2 <=> HCO + O                33000000000000.004 0.0 0.0
CH + CO (+M) <=> HCCO (+M)         50000000000000.01 0.0 0.0
LOW /2.6900000000000003e+28 -3.74 1936.0/
TROE /0.5757 237 1652 5069/
C2H2/3.000E+00/ C2H4/3.000E+00/ C2H6/3.000E+00/ CH4/2.000E+00/ CO/1.500E+00/ CO2/2.000E+00/ H2/2.000E+00/ H2O/6.000E+00/
CH + CO2 <=> CO + HCO              3400000000000.0005 0.0 690.0
H + HCO (+M) <=> CH2O (+M)         1090000000000.0002 0.48 -260.0
LOW /1.3500000000000003e+24 -2.57 1425.0/
TROE /0.7824 271 2755 6570/
C2H2/3.000E+00/ C2H4/3.000E+00/ C2H6/3.000E+00/ CH4/2.000E+00/ CO/1.500E+00/ CO2/2.000E+00/ H2/2.000E+00/ H2O/6.000E+00/
H + HCO <=> CO + H2                73400000000000.02 0.0 0.0
HCO + O <=> CO + OH                30000000000000.004 0.0 0.0
HCO + O <=> CO2 + H                30000000000000.004 0.0 0.0
HCO + OH <=> CO + H2O              50000000000000.01 0.0 0.0
HCO + M <=> CO + H + M             1.8700000000000003e+17 -1.0 17000.0
C2H2/3.000E+00/ C2H4/3.000E+00/ C2H6/3.000E+00/ CH4/2.000E+00/ CO/1.500E+00/ CO2/2.000E+00/ H2/2.000E+00/ H2O/6.000E+00/
HCO + O2 <=> CO + HO2              7600000000000.001 0.0 400.0
CH2 + H (+M) <=> CH3 (+M)          2.5000000000000004e+16 -0.8 0.0
LOW /3.2000000000000007e+27 -3.14 1230.0/
TROE /0.68 78 1995 5590/
C2H2/3.000E+00/ C2H4/3.000E+00/ C2H6/3.000E+00/ CH4/2.000E+00/ CO/1.500E+00/ CO2/2.000E+00/ H2/2.000E+00/ H2O/6.000E+00/
CH2 + H2 <=> CH3 + H               500000.0000000001 2.0 7230.0
CH2 + O <=> H + HCO                80000000000000.02 0.0 0.0
CH2 + O2 <=> HCO + OH              10560000000000.002 0.0 1500.0
CH2 + O2 <=> CO2 + 2 H             2640000000000.0005 0.0 1500.0
CH2 + OH <=> CH2O + H              20000000000000.004 0.0 0.0
CH2 + OH <=> CH + H2O              11300000.000000002 2.0 3000.0
CH2 + HO2 <=> CH2O + OH            20000000000000.004 0.0 0.0
C + CH2 <=> C2H + H                50000000000000.01 0.0 0.0
CH2 + CO (+M) <=> CH2CO (+M)       810000000000.0001 0.5 4510.0
LOW /2.6900000000000005e+33 -5.11 7095.0/
TROE /0.5907 275 1226 5185/
C2H2/3.000E+00/ C2H4/3.000E+00/ C2H6/3.000E+00/ CH4/2.000E+00/ CO/1.500E+00/ CO2/2.000E+00/ H2/2.000E+00/ H2O/6.000E+00/
CH + CH2 <=> C2H2 + H              40000000000000.01 0.0 0.0
2 CH2 <=> C2H2 + H2                32000000000000.004 0.0 0.0
CH2* + N2 <=> CH2 + N2             15000000000000.002 0.0 600.0
CH2* + H <=> CH + H2               30000000000000.004 0.0 0.0
CH2* + O <=> CO + H2               15000000000000.002 0.0 0.0
CH2* + O <=> H + HCO               15000000000000.002 0.0 0.0
CH2* + OH <=> CH2O + H             30000000000000.004 0.0 0.0
CH2* + H2 <=> CH3 + H              70000000000000.016 0.0 0.0
CH2* + O2 <=> CO + H + OH          28000000000000.004 0.0 0.0
CH2* + O2 <=> CO + H2O             12000000000000.002 0.0 0.0
CH2* + H2O (+M) <=> CH3OH (+M)     20000000000000.004 0.0 0.0
LOW /2.7000000000000003e+38 -6.3 3100.0/
TROE /0.1507 134 2383 7265/
C2H2/3.000E+00/ C2H4/3.000E+00/ C2H6/3.000E+00/ CH4/2.000E+00/ CO/1.500E+00/ CO2/2.000E+00/ H2/2.000E+00/ H2O/6.000E+00/
CH2* + H2O <=> CH2 + H2O           30000000000000.004 0.0 0.0
CH2* + CO <=> CH2 + CO             9000000000000.002 0.0 0.0
CH2* + CO2 <=> CH2 + CO2           7000000000000.001 0.0 0.0
CH2* + CO2 <=> CH2O + CO           14000000000000.002 0.0 0.0
CH2O + H (+M) <=> CH2OH (+M)       540000000000.0001 0.454 3600.0
LOW /1.2700000000000002e+32 -4.82 6530.0/
TROE /0.7187 103 1291 4160/
C2H2/3.000E+00/ C2H4/3.000E+00/ C2H6/3.000E+00/ CH4/2.000E+00/ CO/1.500E+00/ CO2/2.000E+00/ H2/2.000E+00/ H2O/6.000E+00/
CH2O + H (+M) <=> CH3O (+M)        540000000000.0001 0.454 2600.0
LOW /2.2000000000000006e+30 -4.8 5560.0/
TROE /0.758 94 1555 4200/
C2H2/3.000E+00/ C2H4/3.000E+00/ C2H6/3.000E+00/ CH4/2.000E+00/ CO/1.500E+00/ CO2/2.000E+00/ H2/2.000E+00/ H2O/6.000E+00/
CH2O + H <=> H2 + HCO              23000000000.000004 1.05 3275.0
CH2O + O <=> HCO + OH              39000000000000.01 0.0 3540.0
CH2O + OH <=> H2O + HCO            3430000000.0000005 1.18 -447.0
CH2O + O2 <=> HCO + HO2            100000000000000.02 0.0 40000.0
CH2O + HO2 <=> H2O2 + HCO          1000000000000.0001 0.0 8000.0
CH + CH2O <=> CH2CO + H            94600000000000.02 0.0 -515.0
CH3 + H (+M) <=> CH4 (+M)          1.2700000000000002e+16 -0.63 383.0
LOW /2.4770000000000002e+33 -4.76 2440.0/
TROE /0.783 74 2941 6964/
C2H2/3.000E+00/ C2H4/3.000E+00/ C2H6/3.000E+00/ CH4/2.000E+00/ CO/1.500E+00/ CO2/2.000E+00/ H2/2.000E+00/ H2O/6.000E+00/
CH3 + O <=> CH2O + H               84300000000000.02 0.0 0.0
CH3 + OH (+M) <=> CH3OH (+M)       63000000000000.01 0.0 0.0
LOW /2.7000000000000003e+38 -6.3 3100.0/
TROE /0.2105 83.5 5398 8370/
C2H2/3.000E+00/ C2H4/3.000E+00/ C2H6/3.000E+00/ CH4/2.000E+00/ CO/1.500E+00/ CO2/2.000E+00/ H2/2.000E+00/ H2O/6.000E+00/
CH3 + OH <=> CH2 + H2O             56000000.00000001 1.6 5420.0
CH3 + OH <=> CH2* + H2O            25010000000000.004 0.0 0.0
CH3 + O2 <=> CH3O + O              30830000000000.004 0.0 28800.0
CH3 + O2 <=> CH2O + OH             36000000000.00001 0.0 8940.0
CH3 + HO2 <=> CH4 + O2             1000000000000.0001 0.0 0.0
CH3 + HO2 <=> CH3O + OH            13400000000000.002 0.0 0.0
CH3 + H2O2 <=> CH4 + HO2           24500.000000000004 2.47 5180.0
C + CH3 <=> C2H2 + H               50000000000000.01 0.0 0.0
CH + CH3 <=> C2H3 + H              30000000000000.004 0.0 0.0
CH3 + HCO <=> CH4 + CO             8480000000000.002 0.0 0.0
CH3 + HCO (+M) <=> CH3CHO (+M)     18000000000000.004 0.0 0.0
LOW /2.2000000000000006e+48 -9.588 5100.0/
TROE /0.6173 13.076 2078 5093/
C2H2/3.000E+00/ C2H4/3.000E+00/ C2H6/3.000E+00/ CH4/2.000E+00/ CO/1.500E+00/ CO2/2.000E+00/ H2/2.000E+00/ H2O/6.000E+00/
CH2O + CH3 <=> CH4 + HCO           3320.0000000000005 2.81 5860.0
CH2 + CH3 <=> C2H4 + H             40000000000000.01 0.0 0.0
CH2* + CH3 <=> C2H4 + H            12000000000000.002 0.0 -570.0
2 CH3 (+M) <=> C2H6 (+M)           2.1200000000000004e+16 -0.97 620.0
LOW /1.7700000000000005e+50 -9.67 6220.0/
TROE /0.5325 151 1038 4970/
C2H2/3.000E+00/ C2H4/3.000E+00/ C2H6/3.000E+00/ CH4/2.000E+00/ CO/1.500E+00/ CO2/2.000E+00/ H2/2.000E+00/ H2O/6.000E+00/
2 CH3 <=> C2H5 + H                 4990000000000.001 0.1 10600.0
CH3 + HCCO <=> C2H4 + CO           50000000000000.01 0.0 0.0
C2H + CH3 <=> C3H3 + H             24090000000000.004 0.0 0.0
CH3O + H (+M) <=> CH3OH (+M)       50000000000000.01 0.0 0.0
LOW /8.600000000000001e+28 -4.0 3025.0/
TROE /0.8902 144 2838 45569/
C2H2/3.000E+00/ C2H4/3.000E+00/ C2H6/3.000E+00/ CH4/2.000E+00/ CO/1.500E+00/ CO2/2.000E+00/ H2/2.000E+00/ H2O/6.000E+00/
CH3O + H <=> CH2OH + H             3400000.0000000005 1.6 0.0
CH3O + H <=> CH2O + H2             20000000000000.004 0.0 0.0
CH3O + H <=> CH3 + OH              32000000000000.004 0.0 0.0
CH3O + H <=> CH2* + H2O            16000000000000.002 0.0 0.0
CH3O + O <=> CH2O + OH             10000000000000.002 0.0 0.0
CH3O + OH <=> CH2O + H2O           5000000000000.001 0.0 0.0
CH3O + O2 <=> CH2O + HO2           4.2800000000000004e-13 7.6 -3530.0
CH2OH + H (+M) <=> CH3OH (+M)      18000000000000.004 0.0 0.0
LOW /3.0000000000000003e+31 -4.8 3300.0/
TROE /0.7679 338 1812 5081/
C2H2/3.000E+00/ C2H4/3.000E+00/ C2H6/3.000E+00/ CH4/2.000E+00/ CO/1.500E+00/ CO2/2.000E+00/ H2/2.000E+00/ H2O/6.000E+00/
CH2OH + H <=> CH2O + H2            20000000000000.004 0.0 0.0
CH2OH + H <=> CH3 + OH             12000000000000.002 0.0 0.0
CH2OH + H <=> CH2* + H2O           6000000000000.001 0.0 0.0
CH2OH + O <=> CH2O + OH            10000000000000.002 0.0 0.0
CH2OH + OH <=> CH2O + H2O          5000000000000.001 0.0 0.0
CH2OH + O2 <=> CH2O + HO2          18000000000000.004 0.0 900.0
CH4 + H <=> CH3 + H2               660000000.0000001 1.62 10840.0
CH4 + O <=> CH3 + OH               1020000000.0000001 1.5 8600.0
CH4 + OH <=> CH3 + H2O             100000000.00000001 1.6 3120.0
CH + CH4 <=> C2H4 + H              60000000000000.01 0.0 0.0
CH2 + CH4 <=> 2 CH3                2460000.0000000005 2.0 8270.0
CH2* + CH4 <=> 2 CH3               16000000000000.002 0.0 -570.0
CH3OH + H <=> CH2OH + H2           17000000.000000004 2.1 4870.0
CH3OH + H <=> CH3O + H2            4200000.000000001 2.1 4870.0
CH3OH + O <=> CH2OH + OH           388000.00000000006 2.5 3100.0
CH3OH + O <=> CH3O + OH            130000.00000000003 2.5 5000.0
CH3OH + OH <=> CH2OH + H2O         1440000.0000000002 2.0 -840.0
CH3OH + OH <=> CH3O + H2O          6300000.000000001 2.0 1500.0
CH3 + CH3OH <=> CH2OH + CH4        30000000.000000004 1.5 9940.0
CH3 + CH3OH <=> CH3O + CH4         10000000.000000002 1.5 9940.0
C2H + H (+M) <=> C2H2 (+M)         1.0000000000000002e+17 -1.0 0.0
LOW /3.7500000000000014e+33 -4.8 1900.0/
TROE /0.6464 132 1315 5566/
C2H2/3.000E+00/ C2H4/3.000E+00/ C2H6/3.000E+00/ CH4/2.000E+00/ CO/1.500E+00/ CO2/2.000E+00/ H2/2.000E+00/ H2O/6.000E+00/
C2H + O <=> CH + CO                50000000000000.01 0.0 0.0
C2H + OH <=> H + HCCO              20000000000000.004 0.0 0.0
C2H + O2 <=> CO + HCO              50000000000000.01 0.0 1500.0
C2H + H2 <=> C2H2 + H              490000.0000000001 2.5 560.0
C2O + H <=> CH + CO                50000000000000.01 0.0 0.0
C2O + O <=> 2 CO                   50000000000000.01 0.0 0.0
C2O + OH <=> 2 CO + H              20000000000000.004 0.0 0.0
C2O + O2 <=> 2 CO + O              20000000000000.004 0.0 0.0
H + HCCO <=> CH2* + CO             100000000000000.02 0.0 0.0
HCCO + O <=> 2 CO + H              100000000000000.02 0.0 0.0
HCCO + O2 <=> 2 CO + OH            1600000000000.0002 0.0 854.0
CH + HCCO <=> C2H2 + CO            50000000000000.01 0.0 0.0
CH2 + HCCO <=> C2H3 + CO           30000000000000.004 0.0 0.0
2 HCCO <=> C2H2 + 2 CO             10000000000000.002 0.0 0.0
HCCO + OH <=> C2O + H2O            30000000000000.004 0.0 0.0
C2H2 (+M) <=> H2CC (+M)            800000000000000.0 -0.52 50750.0
LOW /2450000000000000.5 -0.64 49700.0/
C2H2/2.500E+00/ C2H4/2.500E+00/ C2H6/3.000E+00/ CH4/2.000E+00/ CO/1.500E+00/ CO2/2.000E+00/ H2/2.000E+00/ H2O/6.000E+00/
C2H3 (+M) <=> C2H2 + H (+M)        386000000.0 1.62 37048.22
LOW /2.565e+27 -3.4 35798.72/
TROE /1.9816 5383.7 4.2932 -0.0795/
C2H2/3.000E+00/ C2H4/3.000E+00/ C2H6/3.000E+00/ CH4/2.000E+00/ CO/1.500E+00/ CO2/2.000E+00/ H2/2.000E+00/ H2O/6.000E+00/
C2H2 + O <=> C2H + OH              4.600000000000001e+19 -1.41 28950.0
C2H2 + O <=> H + HCCO              16320000.000000004 2.0 1900.0
C2H2 + O <=> CH2 + CO              4080000.000000001 2.0 1900.0
C2H2 + OH <=> CH2CO + H            0.00021800000000000004 4.5 -1000.0
C2H2 + OH <=> H + HCCOH            504000.0000000001 2.3 13500.0
C2H2 + OH <=> C2H + H2O            33700000.0 2.0 14000.0
C2H2 + OH <=> CH3 + CO             0.0004830000000000001 4.0 -2000.0
C2H2 + HCO <=> C2H3 + CO           10000000.000000002 2.0 6000.0
C2H2 + CH <=> C3H2 + H             30000000000000.004 0.0 0.0
C2H2 + CH2 <=> C3H3 + H            12000000000000.002 0.0 6620.0
C2H2 + CH2* <=> C3H3 + H           20000000000000.004 0.0 0.0
C2H2 + HCCO <=> C3H3 + CO          100000000000.00002 0.0 3000.0
C2H2 + CH3 <=> H + pC3H4           2560000000.0000005 1.1 13644.0
C2H2 + CH3 <=> H + aC3H4           5140000000.000001 0.86 22153.0
C2H2 + CH3 + M <=> CH3CCH2 + M     4.0000000000000005e+24 -3.39 18840.0
C2H2 + CH3 + M <=> aC3H5 + M       2.2000000000000006e+55 -11.82 35730.0
C2H2 + CH3 <=> CH3CHCH             3.2000000000000006e+35 -7.76 13300.0
H + H2CC <=> C2H2 + H              100000000000000.02 0.0 0.0
H2CC + O <=> CH2 + CO              100000000000000.02 0.0 0.0
H2CC + OH <=> CH2CO + H            20000000000000.004 0.0 0.0
H2CC + O2 <=> CH2 + CO2            10000000000000.002 0.0 0.0
CH2CO + H (+M) <=> CH2CHO (+M)     330000000000000.06 -0.06 8500.0
LOW /3.800000000000002e+41 -7.64 11900.0/
TROE /0.337 1707 3200 4131/
C2H2/3.000E+00/ C2H4/3.000E+00/ C2H6/3.000E+00/ CH4/2.000E+00/ CO/1.500E+00/ CO2/2.000E+00/ H2/2.000E+00/ H2O/6.000E+00/
CH2CO + H <=> H2 + HCCO            50000000000000.01 0.0 8000.0
CH2CO + H <=> CH3 + CO             1500000000.0000002 1.43 2690.0
CH2CO + O <=> HCCO + OH            10000000000000.002 0.0 8000.0
CH2CO + O <=> CH2 + CO2            1750000000000.0002 0.0 1350.0
CH2CO + OH <=> H2O + HCCO          7500000000000.001 0.0 2000.0
H + HCCOH <=> CH2CO + H            10000000000000.002 0.0 0.0
C2H3 + H (+M) <=> C2H4 (+M)        6080000000000.001 0.27 280.0
LOW /1.4000000000000005e+30 -3.86 3320.0/
TROE /0.782 207.5 2663 6095/
C2H2/3.000E+00/ C2H4/3.000E+00/ C2H6/3.000E+00/ CH4/2.000E+00/ CO/1.500E+00/ CO2/2.000E+00/ H2/2.000E+00/ H2O/6.000E+00/
C2H3 + H <=> C2H2 + H2             30000000000000.004 0.0 0.0
C2H3 + H <=> H2 + H2CC             60000000000000.01 0.0 0.0
C2H3 + O <=> CH2CO + H             48000000000000.01 0.0 0.0
C2H3 + O <=> CH3 + CO              48000000000000.01 0.0 0.0
C2H3 + OH <=> C2H2 + H2O           30110000000000.004 0.0 0.0
C2H3 + O2 <=> C2H2 + HO2           1340000.0000000002 1.61 -383.4
C2H3 + O2 <=> CH2CHO + O           300000000000.00006 0.29 11.0
C2H3 + O2 <=> CH2O + HCO           4.600000000000001e+16 -1.39 1010.0
C2H3 + HO2 <=> CH2CHO + OH         10000000000000.002 0.0 0.0
C2H3 + H2O2 <=> C2H4 + HO2         12100000000.000002 0.0 -596.0
C2H3 + HCO <=> C2H4 + CO           90330000000000.02 0.0 0.0
C2H3 + CH3 <=> C2H2 + CH4          392000000000.00006 0.0 0.0
C2H3 + CH3 (+M) <=> C3H6 (+M)      25000000000000.004 0.0 0.0
LOW /4.2700000000000005e+58 -11.94 9769.8/
TROE /0.175 1340.6 60000 10139.8/
C2H2/3.000E+00/ C2H4/3.000E+00/ C2H6/3.000E+00/ CH4/2.000E+00/ CO/1.500E+00/ CO2/2.000E+00/ H2/2.000E+00/ H2O/6.000E+00/
C2H3 + CH3 <=> H + aC3H5           1.5000000000000002e+24 -2.83 18618.0
CH2CHO <=> CH3 + CO                7.8e+41 -9.147 46900.0
CH2CHO + H (+M) <=> CH3CHO (+M)    100000000000000.02 0.0 0.0
LOW /5.200000000000002e+39 -7.297 4700.0/
TROE /0.55 8900 4350 7244/
C2H2/3.000E+00/ C2H4/3.000E+00/ C2H6/3.000E+00/ CH4/2.000E+00/ CO/1.500E+00/ CO2/2.000E+00/ H2/2.000E+00/ H2O/6.000E+00/
CH2CHO + H <=> CH3CO + H           5000000000000.001 0.0 0.0
CH2CHO + H <=> CH3 + HCO           90000000000000.02 0.0 0.0
CH2CHO + H <=> CH2CO + H2          20000000000000.004 0.0 4000.0
CH2CHO + O <=> CH2CO + OH          20000000000000.004 0.0 4000.0
CH2CHO + OH <=> CH2CO + H2O        10000000000000.002 0.0 2000.0
CH2CHO + O2 <=> CH2CO + HO2        140000000000.00003 0.0 0.0
CH2CHO + O2 <=> CH2O + CO + OH     18000000000.000004 0.0 0.0
CH3 + CO (+M) <=> CH3CO (+M)       48500000.00000001 1.65 6150.000000000001
LOW /7.800000000000001e+30 -5.395 8600.0/
TROE /0.258 598 21002 1773/
C2H2/3.000E+00/ C2H4/3.000E+00/ C2H6/3.000E+00/ CH4/2.000E+00/ CO/1.500E+00/ CO2/2.000E+00/ H2/2.000E+00/ H2O/6.000E+00/
CH3CO + H (+M) <=> CH3CHO (+M)     96000000000000.02 0.0 0.0
LOW /3.850000000000001e+44 -8.569 5500.0/
TROE /1 2900 2900 5132/
C2H2/3.000E+00/ C2H4/3.000E+00/ C2H6/3.000E+00/ CH4/2.000E+00/ CO/1.500E+00/ CO2/2.000E+00/ H2/2.000E+00/ H2O/6.000E+00/
CH3CO + H <=> CH3 + HCO            80000000000000.02 0.0 0.0
CH3CO + O <=> CH2CO + OH           39000000000000.01 0.0 0.0
CH3CO + O <=> CH3 + CO2            150000000000000.03 0.0 0.0
CH3CO + OH <=> CH2CO + H2O         12000000000000.002 0.0 0.0
CH3CO + OH <=> CH3 + CO + OH       30000000000000.004 0.0 0.0
CH3CO + HO2 <=> CH3 + CO2 + OH     30000000000000.004 0.0 0.0
CH3CO + H2O2 <=> CH3CHO + HO2      180000000000.00003 0.0 8226.0
CH3CHO + O2 <=> CH3CO + HO2        30000000000000.004 0.0 39100.0
CH3CHO + OH <=> CH3CO + H2O        23500000000.000004 0.73 -1110.0
CH3CHO + H <=> CH3CO + H2          4100000000.000001 1.16 2400.0
CH3CHO + O <=> CH3CO + OH          5800000000000.001 0.0 1800.0
CH3 + CH3CHO <=> CH3CO + CH4       2.0000000000000003e-06 5.6 2460.0
C2H4 (+M) <=> H2 + H2CC (+M)       8000000000000.0 0.44 88770.0
LOW /7.000000000000001e+50 -9.31 99860.0/
TROE /0.7345 180 1035 5417/
C2H2/3.000E+00/ C2H4/3.000E+00/ C2H6/3.000E+00/ CH4/2.000E+00/ CO/1.500E+00/ CO2/2.000E+00/ H2/2.000E+00/ H2O/6.000E+00/
C2H4 + H (+M) <=> C2H5 (+M)        1080000000000.0002 0.454 1820.0
LOW /1.2000000000000001e+42 -7.62 6970.0/
TROE /0.9753 210 984 4374/
C2H2/3.000E+00/ C2H4/3.000E+00/ C2H6/3.000E+00/ CH4/2.000E+00/ CO/1.500E+00/ CO2/2.000E+00/ H2/2.000E+00/ H2O/6.000E+00/
C2H4 + H <=> C2H3 + H2             50700000.00000001 1.93 12950.0
C2H4 + O <=> C2H3 + OH             15100000.000000004 1.91 3740.0
C2H4 + O <=> CH3 + HCO             19200000.000000004 1.83 220.0
C2H4 + O <=> CH2 + CH2O            384000.00000000006 1.83 220.0
C2H4 + OH <=> C2H3 + H2O           3600000.0000000005 2.0 2500.0
C2H4 + O2 <=> C2H3 + HO2           42200000000000.01 0.0 60800.0
C2H4 + HO2 <=> CH3CHO + OH         2000000000000.0002 0.0 14000.0
C2H4 + HCO <=> C2H5 + CO           10000000.000000002 2.0 8000.0
C2H4 + CH <=> H + aC3H4            30000000000000.004 0.0 0.0
C2H4 + CH <=> H + pC3H4            30000000000000.004 0.0 0.0
C2H4 + CH2 <=> H + aC3H5           20000000000000.004 0.0 6000.0
C2H4 + CH2* <=> CH4 + H2CC         50000000000000.01 0.0 0.0
C2H4 + CH2* <=> H + aC3H5          50000000000000.01 0.0 0.0
C2H4 + CH3 <=> C2H3 + CH4          227000.00000000003 2.0 9200.0
C2H4 + CH3 <=> nC3H7               330000000000.00006 0.0 7700.0
C2H5 + H (+M) <=> C2H6 (+M)        5.2100000000000006e+17 -0.99 1580.0
LOW /1.9900000000000004e+41 -7.08 6685.0/
TROE /0.8422 125 2219 6882/
C2H2/3.000E+00/ C2H4/3.000E+00/ C2H6/3.000E+00/ CH4/2.000E+00/ CO/1.500E+00/ CO2/2.000E+00/ H2/2.000E+00/ H2O/6.000E+00/
C2H5 + H <=> C2H4 + H2             2000000000000.0002 0.0 0.0
C2H5 + O <=> CH2O + CH3            16040000000000.002 0.0 0.0
C2H5 + O <=> CH3CHO + H            80200000000000.02 0.0 0.0
C2H5 + O2 <=> C2H4 + HO2           20000000000.000004 0.0 0.0
C2H5 + HO2 <=> C2H6 + O2           300000000000.00006 0.0 0.0
C2H5 + HO2 <=> C2H4 + H2O2         300000000000.00006 0.0 0.0
C2H5 + HO2 <=> CH2O + CH3 + OH     24000000000000.004 0.0 0.0
C2H5 + H2O2 <=> C2H6 + HO2         8700000000.000002 0.0 974.0
C2H5 + HCO <=> C2H6 + CO           120000000000000.02 0.0 0.0
C2H6 + H <=> C2H5 + H2             115000000.00000001 1.9 7530.0
C2H6 + O <=> C2H5 + OH             89800000.00000001 1.92 5690.0
C2H6 + OH <=> C2H5 + H2O           3540000.0000000005 2.12 870.0
C2H6 + CH2* <=> C2H5 + CH3         40000000000000.01 0.0 -550.0
C2H6 + CH3 <=> C2H5 + CH4          6140000.000000002 1.74 10450.0
C3H2 + O <=> C2H2 + CO             68000000000000.016 0.0 0.0
C3H2 + OH <=> C2H2 + HCO           68000000000000.016 0.0 0.0
C3H2 + O2 <=> CO + H + HCCO        2000000000000.0002 0.0 1000.0
C3H2 + H <=> C3H3                  10000000000000.002 0.0 0.0
C3H3 + H <=> pC3H4                 15000000000000.002 0.0 0.0
C3H3 + H <=> aC3H4                 2500000000000.0005 0.0 0.0
C3H3 + H <=> C3H2 + H2             50000000000000.01 0.0 1000.0
C3H3 + O <=> C2H + CH2O            20000000000000.004 0.0 0.0
C3H3 + OH <=> C3H2 + H2O           20000000000000.004 0.0 0.0
C3H3 + O2 <=> CH2CO + HCO          30000000000.000004 0.0 2868.0
C3H3 + HO2 <=> C2H3 + CO + OH      800000000000.0001 0.0 0.0
C3H3 + HO2 <=> O2 + aC3H4          300000000000.00006 0.0 0.0
C3H3 + HO2 <=> O2 + pC3H4          2500000000000.0005 0.0 0.0
C3H3 + HCO <=> CO + aC3H4          25000000000000.004 0.0 0.0
C3H3 + HCO <=> CO + pC3H4          25000000000000.004 0.0 0.0
2 C3H3 => A1- + H                  5000000000000.001 0.0 0.0
2 C3H3 <=> A1                      2000000000000.0002 0.0 0.0
pC3H4 (+M) <=> cC3H4 (+M)          1800000000000.0 0.309 60000.0
LOW /1.8900000000000002e+45 -8.871 64200.0/
TROE /0.174 1084 20000 4267/
C2H2/3.000E+00/ C2H4/3.000E+00/ C2H6/3.000E+00/ CH4/2.000E+00/ CO/1.500E+00/ CO2/2.000E+00/ H2/2.000E+00/ H2O/6.000E+00/
cC3H4 (+M) <=> aC3H4 (+M)          1800000000000.0 0.578 42200.0
LOW /4.0000000000000005e+46 -9.112 46900.0/
TROE /0 236 2000 1594/
C2H2/3.000E+00/ C2H4/3.000E+00/ C2H6/3.000E+00/ CH4/2.000E+00/ CO/1.500E+00/ CO2/2.000E+00/ H2/2.000E+00/ H2O/6.000E+00/
pC3H4 <=> aC3H4                    3.727e+51 -11.401 83917.21
H + aC3H4 <=> C3H3 + H2            1300000.0000000002 2.0 5500.0
H + aC3H4 + M <=> CH3CCH2 + M      7.760000000000001e+44 -8.43 11190.0
C2H2/3.000E+00/ C2H4/3.000E+00/ C2H6/3.000E+00/ CH4/2.000E+00/ CO/1.500E+00/ CO2/2.000E+00/ H2/2.000E+00/ H2O/6.000E+00/
H + aC3H4 (+M) <=> aC3H5 (+M)      3380000000.0000005 1.477 4786.0
LOW /7.500000000000001e+59 -12.484 13678.0/
TROE /0 650 1000 3496.1/
C2H2/3.000E+00/ C2H4/3.000E+00/ C2H6/3.000E+00/ CH4/2.000E+00/ CO/1.500E+00/ CO2/2.000E+00/ H2/2.000E+00/ H2O/6.000E+00/
O + aC3H4 <=> C2H4 + CO            20000000.000000004 1.8 1000.0
OH + aC3H4 <=> C3H3 + H2O          5300000.000000001 2.0 2000.0
CH3 + aC3H4 <=> C3H3 + CH4         1300000000000.0002 0.0 7700.0
C2H + aC3H4 <=> C2H2 + C3H3        10000000000000.002 0.0 0.0
A1- + aC3H4 <=> A1 + C3H3          2000000000000.0002 0.0 15000.0
H + pC3H4 <=> H + aC3H4            6.270000000000001e+17 -0.91 10079.0
H + pC3H4 + M <=> CH3CCH2 + M      1.3600000000000004e+49 -9.58 13690.0
H + pC3H4 <=> CH3CHCH              5.500000000000001e+28 -5.74 4300.0
H + pC3H4 <=> aC3H5                2.0740000000000006e+57 -13.423 29212.92
H + pC3H4 <=> C3H3 + H2            1300000.0000000002 2.0 5500.0
O + pC3H4 <=> CH3 + HCCO           7300000000000.001 0.0 2250.0
O + pC3H4 <=> C2H4 + CO            10000000000000.002 0.0 2250.0
O + pC3H4 <=> C3H3 + OH            34500.0 2.16 4830.0
OH + pC3H4 <=> C3H3 + H2O          1000000.0000000002 2.0 100.0
CH3 + pC3H4 <=> C3H3 + CH4         1800000000000.0002 0.0 7700.0
C2H + pC3H4 <=> C2H2 + C3H3        10000000000000.002 0.0 0.0
A1- + pC3H4 <=> A1 + C3H3          2000000000000.0002 0.0 15000.0
H + aC3H5 (+M) <=> C3H6 (+M)       200000000000000.03 0.0 0.0
LOW /1.3300000000000002e+60 -12.0 5967.8/
TROE /0.02 1096.6 1096.6 6859.5/
C2H2/3.000E+00/ C2H4/3.000E+00/ C2H6/3.000E+00/ CH4/2.000E+00/ CO/1.500E+00/ CO2/2.000E+00/ H2/2.000E+00/ H2O/6.000E+00/
H + aC3H5 <=> H2 + aC3H4           18000000000000.004 0.0 0.0
H + aC3H5 <=> CH4 + H2CC           20000000000000.004 0.0 2000.0
O + aC3H5 <=> C2H3CHO + H          60000000000000.01 0.0 0.0
OH + aC3H5 <=> C2H3CHO + 2 H       4.200000000000001e+32 -5.16 30126.0
OH + aC3H5 <=> H2O + aC3H4         6000000000000.001 0.0 0.0
O2 + aC3H5 <=> HO2 + aC3H4         4990000000000001.0 -1.4 22428.0
O2 + aC3H5 <=> CH2O + CH3CO        1190000000000000.2 -1.01 20128.0
O2 + aC3H5 <=> C2H3CHO + OH        18200000000000.004 -0.41 22859.0
HO2 + aC3H5 <=> C3H6 + O2          2660000000000.0005 0.0 0.0
HO2 + aC3H5 <=> C2H3 + CH2O + OH   6600000000000.001 0.0 0.0
HCO + aC3H5 <=> C3H6 + CO          60000000000000.01 0.0 0.0
CH3 + aC3H5 <=> CH4 + aC3H4        3000000000000.0005 -0.32 -131.0
aC3H5 <=> CH3CCH2                  9.44e+62 -15.537 79079.65
aC3H5 <=> CH3CHCH                  5e+51 -13.02 73300.0
CH3CCH2 + H <=> H2 + pC3H4         3340000000000.0005 0.0 0.0
CH3CCH2 + H <=> H + aC3H5          50000000000000.01 0.0 0.0
CH3CCH2 + O <=> CH2CO + CH3        60000000000000.01 0.0 0.0
CH3CCH2 + OH <=> CH2CO + CH3 + H   5000000000000.001 0.0 0.0
CH3CCH2 + O2 <=> CH2O + CH3CO      100000000000.00002 0.0 0.0
CH3CCH2 + HO2 <=> CH2CO + CH3 + OH 20000000000000.004 0.0 0.0
CH3CCH2 + HCO <=> C3H6 + CO        90000000000000.02 0.0 0.0
CH3 + CH3CCH2 <=> CH4 + pC3H4      100000000000.00002 0.0 0.0
CH3CCH2 <=> CH3CHCH                1.5e+48 -12.71 53900.0
CH3CHCH + H <=> H2 + pC3H4         3340000000000.0005 0.0 0.0
CH3CHCH + H <=> H + aC3H5          50000000000000.01 0.0 0.0
CH3CHCH + O <=> C2H5 + CO          60000000000000.01 0.0 0.0
CH3CHCH + OH <=> C2H5 + CO + H     5000000000000.001 0.0 0.0
CH3CHCH + O2 <=> CH3CHO + HCO      100000000000.00002 0.0 0.0
CH3CHCH + HO2 <=> C2H5 + CO + OH   20000000000000.004 0.0 0.0
CH3CHCH + HCO <=> C3H6 + CO        90000000000000.02 0.0 0.0
CH3 + CH3CHCH <=> CH4 + pC3H4      100000000000.00002 0.0 0.0
C2H3 + HCO <=> C2H3CHO             18000000000000.004 0.0 0.0
C2H3CHO + H <=> C2H4 + HCO         1080000000000.0002 0.454 1820.0
C2H3CHO + O <=> C2H3 + CO + OH     30000000000000.004 0.0 3540.0
C2H3CHO + O <=> CH2CO + CH2O       19000000.000000004 1.8 220.0
C2H3CHO + OH <=> C2H3 + CO + H2O   3430000000.0000005 1.18 -447.0
C3H6 + H (+M) <=> nC3H7 (+M)       13300000000000.002 0.0 3260.7
LOW /6.2600000000000006e+38 -6.66 7000.0/
TROE /1 1000 1310 48097/
C2H6/3.000E+00/ CH4/2.000E+00/ CO/1.500E+00/ CO2/2.000E+00/ H2/2.000E+00/ H2O/6.000E+00/
C3H6 + H (+M) <=> iC3H7 (+M)       13300000000000.002 0.0 1559.8
LOW /8.700000000000001e+42 -7.5 4721.8/
TROE /1 1000 645.4 6844.3/
C2H6/3.000E+00/ CH4/2.000E+00/ CO/1.500E+00/ CO2/2.000E+00/ H2/2.000E+00/ H2O/6.000E+00/
C3H6 + H <=> C2H4 + CH3            1.6000000000000002e+22 -2.39 11180.0
C3H6 + H <=> H2 + aC3H5            170000.00000000003 2.5 2490.0
C3H6 + H <=> CH3CCH2 + H2          400000.00000000006 2.5 9790.0
C3H6 + H <=> CH3CHCH + H2          800000.0000000001 2.5 12280.0
C3H6 + O <=> CH2CO + CH3 + H       120000000.00000001 1.65 327.0
C3H6 + O <=> C2H5 + HCO            35000000.00000001 1.65 -972.0
C3H6 + O <=> OH + aC3H5            180000000000.00003 0.7 5880.0
C3H6 + O <=> CH3CCH2 + OH          60000000000.00001 0.7 7630.0
C3H6 + O <=> CH3CHCH + OH          120000000000.00002 0.7 8960.0
C3H6 + OH <=> H2O + aC3H5          3100000.0000000005 2.0 -298.0
C3H6 + OH <=> CH3CCH2 + H2O        1100000.0 2.0 1450.0
C3H6 + OH <=> CH3CHCH + H2O        2100000.0000000005 2.0 2780.0
C3H6 + HO2 <=> H2O2 + aC3H5        9600.000000000002 2.6 13910.0
C3H6 + CH3 <=> CH4 + aC3H5         2.2000000000000006 3.5 5675.0
C3H6 + CH3 <=> CH3CCH2 + CH4       0.8400000000000002 3.5 11660.0
C3H6 + CH3 <=> CH3CHCH + CH4       1.3500000000000005 3.5 12850.000000000002
H + nC3H7 (+M) <=> C3H8 (+M)       36000000000000.01 0.0 0.0
LOW /3.010000000000001e+48 -9.32 5833.6/
TROE /0.498 1314 1314 50000/
C2H6/3.000E+00/ CH4/2.000E+00/ CO/1.500E+00/ CO2/2.000E+00/ H2/2.000E+00/ H2O/6.000E+00/
H + nC3H7 <=> C2H5 + CH3           3.7000000000000005e+24 -2.92 12504.999999999998
H + nC3H7 <=> C3H6 + H2            1800000000000.0002 0.0 0.0