/*--------------------------------*- C++ -*----------------------------------*\
  =========                 |
  \\      /  F ield         | OpenFOAM: The Open Source CFD Toolbox
   \\    /   O peration     | Website:  https://openfoam.org
    \\  /    A nd           | Version:  10
     \\/     M anipulation  |
\*---------------------------------------------------------------------------*/
FoamFile
{
    version     2.0;
    format      ascii;
    class       dictionary;
    location    "constant";
    object      chemistryProperties;
}
// * * * * * * * * * * * * * * * * * * * * * * * * * * * * * * * * * * * * * //


chemistryType {
  chemistrySolver   ode; //EulerImplicit;
  chemistryThermo   rho;
}

chemistry           on;

initialChemicalTimeStep 1e-09;

EulerImplicitCoeffs {
  cTauChem        1;
  equilibriumRateLimiter off;
}

odeCoeffs {
  solver          Rosenbrock34;
//  solver          RKF45;
  absTol          1e-12;
  relTol          1e-6;
}


/*
chemistryType
{
    solver          ode;
}

chemistry       on;

initialChemicalTimeStep 1e-08;

odeCoeffs
{
    solver          seulex;
    absTol          1e-8;
    relTol          1e-3;

}

EulerImplicitCoeffs
{
    cTauChem        1;
}

#include "reactions"
*/

// ************************************************************************* //
