/*--------------------------------*- C++ -*----------------------------------*\
  =========                 |
  \\      /  F ield         | OpenFOAM: The Open Source CFD Toolbox
   \\    /   O peration     | Website:  https://openfoam.org
    \\  /    A nd           | Version:  7
     \\/     M anipulation  |
\*---------------------------------------------------------------------------*/
FoamFile
{
    version     2.0;
    format      ascii;
    class       dictionary;
    location    "system";
    object      fvSolution;
}
// * * * * * * * * * * * * * * * * * * * * * * * * * * * * * * * * * * * * * //

solvers
{
    /*"rho.*"
    {
        solver          diagonal;
    }*/

    rho
    {
        solver          PCG;
        preconditioner  DIC;
        tolerance       1e-7;
        relTol          0;
    }

    rhoFinal
    {
        $rho;
        tolerance       1e-7;
        relTol          0;
    }

/*    p*/
/*    {*/
/*        solver           PCG;*/
/*        preconditioner   DIC;*/
/*        tolerance        1e-14;*/
/*        relTol           1e-7;*/
/*    }*/

/*    pFinal*/
/*    {*/
/*        $p;*/
/*        tolerance        1e-14;*/
/*        relTol           0.0;*/
/*    }*/

    p_rgh
    {
        solver           PCG;
        preconditioner   DIC;
        tolerance        1e-10;
        relTol           1e-5;
    }

    p_rghFinal
    {
        $p_rgh;
        relTol           0.0;
    }

    "(U|h|k|epsilon|Yi)"
    {
        solver          PBiCGStab;
        preconditioner  DILU;
        tolerance       1e-10; //11
        relTol          1e-5; //6
    }

    "(U|h|k|epsilon|Yi)Final"
    {
        $U;
        relTol          0;
    }

    "G.*"
    {
        solver          PCG;
        preconditioner  DIC;
        tolerance       1e-7;
        relTol          1e-4;
    }

    GFinal
    {
        $G;
        relTol          0;
    }

}

PIMPLE
{
    momentumPredictor yes;
    nOuterCorrectors  1;
    nCorrectors     2;
    nNonOrthogonalCorrectors 1;
}

relaxationFactors {
  fields
  {
  }
  equations
  {
    "h.*"       0.5;
    "U.*"       0.5;
    "Yi.*"      0.5;  // XXX
  }
}

// ************************************************************************* //
