/*--------------------------------*- C++ -*----------------------------------*\
  =========                 |
  \\      /  F ield         | OpenFOAM: The Open Source CFD Toolbox
   \\    /   O peration     | Website:  https://openfoam.org
    \\  /    A nd           | Version:  7
     \\/     M anipulation  |
\*---------------------------------------------------------------------------*/
FoamFile
{
    version     2.0;
    format      ascii;
    class       dictionary;
    location    "system";
    object      controlDict;
}
// * * * * * * * * * * * * * * * * * * * * * * * * * * * * * * * * * * * * * //

application     reactingDNS;

startFrom       latestTime;

startTime       0;

stopAt          endTime;

endTime         2;

deltaT          1e-7;

// either maxCo or maxDeltaT, not both 
maxCo           0.1;
//maxDeltaT       2.5e-5;

adjustTimeStep  yes;

writeControl    adjustableRunTime;
writeInterval   5e-2;

purgeWrite      3;

writeFormat     binary;

writePrecision  12;

writeCompression off;

timeFormat      fixed;

timePrecision   6;

runTimeModifiable true;

functions
{
    line
    {
        type            sets;
        functionObjectLibs ("libsampling.so");
        writeControl   writeTime;

        //region flow;

        interpolationScheme cellPoint;
        setFormat       raw;
        sets
        (
            lineH
            {
                type lineUniform;
                axis distance;
                start ( 0.00 0.105 0 );
                end   ( 0.05 0.105 0 );
                nPoints 101;
            }
            
            lineV
            {
                type lineUniform;
                axis distance;
                start ( 1e-5 0.10 0 );
                end   ( 1e-5 0.11 0 );
                nPoints 1001;
            }            
        );
        fields ( T CO CO2 O2 N2 );
    }

    wallHeatFlux1
    {
        type            wallHeatFlux;
        libs            ("libfieldFunctionObjects.so");

        // Optional entries (runtime modifiable)
        patches         ("sample");
        qr              qr;

        // Optional (inherited) entries
        writePrecision  8;
        writeToFile     true;
        //region          flow;
        writeControl    writeTime;
    }
    
    patchProbes
    {
       type               patchProbes;
       functionObjectLibs ("libsampling.so");

       // Patches to sample (wildcards allowed)
       patchName          sample;

       // Name of the directory for probe data
       //name               patchProbes;

       writeControl       writeTime;
       //writeControl       timeStep;
       //writeInterval      5;

       //region             flow;
       fields             (wallHeatFlux);

        // Locations to probe. These get snapped onto the nearest point
        // on the selected patches
       probeLocations (
           ( 0.0 0.11 0.0)
       );
    }
    
    fileUpdate1
    {
        type            timeActivatedFileUpdate;
        functionObjectLibs ("libutilityFunctionObjects.so");
        outputControl   timeStep;
        outputInterval  1;
        fileToUpdate    "$FOAM_CASE/system/controlDict";
        timeVsFile
        (
            (0.0005    "$FOAM_CASE/system/controlDict_2")
            (0.0010    "$FOAM_CASE/system/controlDict_3")
            (1.0000    "$FOAM_CASE/system/controlDict_4")
        );
    }
}

// ************************************************************************* //
