/*--------------------------------*- C++ -*----------------------------------*\
  =========                 |
  \\      /  F ield         | OpenFOAM: The Open Source CFD Toolbox
   \\    /   O peration     | Website:  https://openfoam.org
    \\  /    A nd           | Version:  7
     \\/     M anipulation  |
\*---------------------------------------------------------------------------*/
FoamFile
{
    version     2.0;
    format      ascii;
    class       dictionary;
    location    "system";
    object      controlDict;
}
// * * * * * * * * * * * * * * * * * * * * * * * * * * * * * * * * * * * * * //

application     reactingDNS;

startFrom       latestTime;
/*startFrom       startTime;*/

startTime       0;

stopAt          endTime;

endTime         2;

deltaT          1e-7;

// either maxCo or maxDeltaT, not both 
maxCo           0.5;
//maxDeltaT       2.5e-5;

adjustTimeStep  yes;

writeControl    adjustableRunTime;
writeInterval   1e-2;

//writeControl    timeStep;
//writeInterval   10;

purgeWrite      0;

writeFormat     binary;

writePrecision  12;

writeCompression off;

timeFormat      fixed;
/*timeFormat      general;*/

timePrecision   6;

runTimeModifiable true;

functions
{
    wallHeatFlux1
    {
        type            wallHeatFlux;
        libs            ("libfieldFunctionObjects.so");

        // Optional entries (runtime modifiable)
        patches         ("sample");
        qr              qr;

        // Optional (inherited) entries
        writePrecision  8;
        writeToFile     true;
        //region          flow;
        writeControl    writeTime;
    }
    
    patchProbes
    {
       type               patchProbes;
       functionObjectLibs ("libsampling.so");

       // Patches to sample (wildcards allowed)
       patchName          sample;

       // Name of the directory for probe data
       //name               patchProbes;

       writeControl       writeTime;
       //writeControl       timeStep;
       //writeInterval      5;

       //region             flow;
       fields             (wallHeatFlux);

        // Locations to probe. These get snapped onto the nearest point
        // on the selected patches
       probeLocations (
           ( 0.0 0.11 0.0)
       );
    }
    
    fileUpdate1
    {
        type            timeActivatedFileUpdate;
        functionObjectLibs ("libutilityFunctionObjects.so");
        outputControl   timeStep;
        outputInterval  1;
        fileToUpdate    "$FOAM_CASE/system/controlDict";
        timeVsFile
        (
            (0.0000    "$FOAM_CASE/system/controlDict_1")
            (0.0005    "$FOAM_CASE/system/controlDict_2")
            (0.0010    "$FOAM_CASE/system/controlDict_3")
            (0.0100    "$FOAM_CASE/system/controlDict_4")
        );
    }
}


// ************************************************************************* //
