/*--------------------------------*- C++ -*----------------------------------*\
| =========                 |                                                 |
| \\      /  F ield         | OpenFOAM: The Open Source CFD Toolbox           |
|  \\    /   O peration     | Version:  plus                                  |
|   \\  /    A nd           | Web:      www.OpenFOAM.com                      |
|    \\/     M anipulation  |                                                 |
\*---------------------------------------------------------------------------*/
FoamFile
{
    version     2.0;
    format      ascii;
    class       dictionary;
    location    "system";
    object      fvOptions;
}
// * * * * * * * * * * * * * * * * * * * * * * * * * * * * * * * * * * * * * //

radiation
{
    type            radiation;
    libs            ("libradiationModels.so");
}
 
limitT
{
    type            limitTemperature;
    active          yes;

    selectionMode   all;
    min             200;
    max             2499.99;
}

fixedTemperature
{
    type            fixedTemperatureConstraint;

    selectionMode   cellZone;
    cellZone        porosity;
    mode            uniform;
    temperature     300;
}

fixedValue1
{
    type            vectorFixedValueConstraint;
    active          yes;

    selectionMode   cellZone;    //cellZone or all
    cellZone        porosity;
    fieldValues
    {
        U           (0 0.145170508529917 0);
    }
}
