/*--------------------------------*- C++ -*----------------------------------*\
  =========                 |
  \\      /  F ield         | OpenFOAM: The Open Source CFD Toolbox
   \\    /   O peration     | Website:  https://openfoam.org
    \\  /    A nd           | Version:  7
     \\/     M anipulation  |
\*---------------------------------------------------------------------------*/
FoamFile
{
    version     2.0;
    format      ascii;
    class       dictionary;
    location    "system/fluid";
    object      setFieldsDict;
}
// * * * * * * * * * * * * * * * * * * * * * * * * * * * * * * * * * * * * * //

regions
(
    boxToCell
    {
        box (0.00 0.0 -1.0) (0.036703 0.1 1.0);
        fieldValues
        (
            volScalarFieldValue volFraction 0.465
        );
    }
    
    boxToCell
    {
        box (0.0 0.0 -1.0) (0.030226 0.1005 1.0);
        fieldValues
        (
            volScalarFieldValue C2H4 0.06372925403106726
            volScalarFieldValue N2 0.7182046587279592
            volScalarFieldValue O2 0.21806608724097354
            volVectorFieldValue U (0 0.145170508529917 0)
            volScalarFieldValue T 300
        );
    }

    boxToCell
    {
        box (0.0 0.1005 -1.0) (0.030226 0.105 1.0);
        fieldValues
        (
            volScalarFieldValue T 1800
            volVectorFieldValue U (0.0 0.871023051 0.0)
            volScalarFieldValue C2H4 0.015
        );
    }

    boxToCell
    {
        box (0.030226 0.0 -1.0) (0.036703 0.105 1.0);
        fieldValues
        (
            volScalarFieldValue T 300
            volVectorFieldValue U (0 0.145170508529917 0)
            volScalarFieldValue O2 0.0
            volScalarFieldValue N2 1.0
        );
    }
);

// ************************************************************************* //
