/*--------------------------------*- C++ -*----------------------------------*\
  =========                 |
  \\      /  F ield         | OpenFOAM: The Open Source CFD Toolbox
   \\    /   O peration     | Website:  https://openfoam.org
    \\  /    A nd           | Version:  7
     \\/     M anipulation  |
\*---------------------------------------------------------------------------*/
FoamFile
{
    version     2.0;
    format      ascii;
    class       dictionary;
    location    "system/fluid";
    object      setFieldsDict;
}
// * * * * * * * * * * * * * * * * * * * * * * * * * * * * * * * * * * * * * //

defaultFieldValues
(
    volScalarFieldValue T 300
    volScalarFieldValue C2H4 0.06
    volScalarFieldValue O2 0.18
    volScalarFieldValue CO2 0.0
    volScalarFieldValue H2O 0.0
);

regions
(
    boxToCell
    {
        box (0.0 -1.0 -1.0) (1.0 1.0 1.0);
        fieldValues
        (
            volScalarFieldValue C2H4 0.0
            volScalarFieldValue O2 0.0
            volScalarFieldValue CO2 0.12
            volScalarFieldValue H2O 0.12
            volScalarFieldValue T 2100
/*            volVectorFieldValue U (0 0 0)*/
        );
    }
);

// ************************************************************************* //
