/*--------------------------------*- C++ -*----------------------------------*\
| =========                 |                                                 |
| \\      /  F ield         | OpenFOAM: The Open Source CFD Toolbox           |
|  \\    /   O peration     | Version:  2.3.0                                 |
|   \\  /    A nd           | Web:      www.OpenFOAM.org                      |
|    \\/     M anipulation  |                                                 |
\*---------------------------------------------------------------------------*/
FoamFile
{
    version     2.0;
    format      ascii;
    class       dictionary;
    location    "constant";
    object      speciesLambda;
}

H2
{
Lambda1  -1.0486522802869231;
Lambda2  0.6227582150364402;
Lambda3  -0.13650986562279746;
Lambda4  0.013186450260101446;
Lambda5  -0.00047094449908117;
}
H
{
Lambda1  -0.18093252756699013;
Lambda2  0.08914297201099765;
Lambda3  -0.015094457237883812;
Lambda4  0.0011553835063241504;
Lambda5  -3.200313488201192e-05;
}
O
{
Lambda1  0.013887209688392792;
Lambda2  -0.007977326890117369;
Lambda3  0.0019817193164755435;
Lambda4  -0.0002086221151292797;
Lambda5  8.298462201913593e-06;
}
O2
{
Lambda1  0.12598650427266153;
Lambda2  -0.07518311328175512;
Lambda3  0.016766921358417418;
Lambda4  -0.0016427659417670819;
Lambda5  6.021478803459798e-05;
}
OH
{
Lambda1  -0.29342835924983574;
Lambda2  0.17905738785652137;
Lambda3  -0.04032198860748692;
Lambda4  0.004003791288174439;
Lambda5  -0.0001470194049761774;
}
H2O
{
Lambda1  -0.41365967119589636;
Lambda2  0.2571477690904377;
Lambda3  -0.05946237728229246;
Lambda4  0.006051949609315485;
Lambda5  -0.00022680723092550505;
}
HO2
{
Lambda1  0.037388230304237186;
Lambda2  -0.02226097634573285;
Lambda3  0.004916521311976227;
Lambda4  -0.0004672751520629169;
Lambda5  1.7045652934259428e-05;
}
H2O2
{
Lambda1  0.0011451416120624124;
Lambda2  0.0016813284886823606;
Lambda3  -0.0010436872798030579;
Lambda4  0.00019343615855418056;
Lambda5  -1.0005323401195851e-05;
}
C
{
Lambda1  0.04353614277739884;
Lambda2  -0.02760391456855004;
Lambda3  0.006716577498168253;
Lambda4  -0.0007118625739181844;
Lambda5  2.8156620650724116e-05;
}
CH
{
Lambda1  -0.4884922676306564;
Lambda2  0.2988605423658169;
Lambda3  -0.06771521530642448;
Lambda4  0.006765070326678333;
Lambda5  -0.0002500845218560736;
}
CH2
{
Lambda1  -0.1923842905199941;
Lambda2  0.11955208897993447;
Lambda3  -0.027690529983612107;
Lambda4  0.0028448436844690007;
Lambda5  -0.00010827012098972688;
}
CH2*
{
Lambda1  -0.09808160321323278;
Lambda2  0.06718404178295562;
Lambda3  -0.016912513942611805;
Lambda4  0.0018692721293119903;
Lambda5  -7.547010869038115e-05;
}
CH3
{
Lambda1  -0.177053489021148;
Lambda2  0.11612279506537611;
Lambda3  -0.0283527614971265;
Lambda4  0.0030579224035219912;
Lambda5  -0.00012116211344851525;
}
CH4
{
Lambda1  0.04484512549511266;
Lambda2  -0.0050072691520897175;
Lambda3  -0.004039777401582185;
Lambda4  0.0009220656493502318;
Lambda5  -5.091334113779019e-05;
}
CO
{
Lambda1  0.019692850176581088;
Lambda2  -0.008408796854812764;
Lambda3  0.0011769402488049979;
Lambda4  -3.952915453179799e-05;
Lambda5  -1.1426829318588216e-06;
}
CO2
{
Lambda1  0.07962265205237755;
Lambda2  -0.04684288449951705;
Lambda3  0.010059646806023108;
Lambda4  -0.0009272684995670552;
Lambda5  3.152156715029926e-05;
}
HCO
{
Lambda1  0.0898293213207094;
Lambda2  -0.04676941880510885;
Lambda3  0.008712796355836407;
Lambda4  -0.000673788527119551;
Lambda5  1.8280220980342018e-05;
}
CH2O
{
Lambda1  0.09155406741644394;
Lambda2  -0.041761203015451206;
Lambda3  0.006132756618404259;
Lambda4  -0.0002706794923111926;
Lambda5  -1.6677703977954745e-06;
}
CH2OH
{
Lambda1  0.05330104222179796;
Lambda2  -0.02415073942805867;
Lambda3  0.003329299726534069;
Lambda4  -9.67732481444268e-05;
Lambda5  -4.485871261302242e-06;
}
CH3O
{
Lambda1  0.14715243240421874;
Lambda2  -0.07673018341123969;
Lambda3  0.014164030756065683;
Lambda4  -0.0010715919159469194;
Lambda5  2.795804764665681e-05;
}
CH3OH
{
Lambda1  0.07914124350262612;
Lambda2  -0.02971203232088735;
Lambda3  0.0022849742074622175;
Lambda4  0.00022830746514923092;
Lambda5  -2.3933734378752755e-05;
}
C2H
{
Lambda1  -0.22781448906040772;
Lambda2  0.14124194975381757;
Lambda3  -0.032770914727386066;
Lambda4  0.0033778158656542225;
Lambda5  -0.00012940800261184687;
}
C2H2
{
Lambda1  -0.1067084413775383;
Lambda2  0.06453683943797345;
Lambda3  -0.014862044496028664;
Lambda4  0.001544672093592922;
Lambda5  -5.9519778762920873e-05;
}
H2CC
{
Lambda1  -0.03696051182371113;
Lambda2  0.02503473648104356;
Lambda3  -0.006438514362166267;
Lambda4  0.0007430970247012158;
Lambda5  -3.110001566646909e-05;
}
C2H3
{
Lambda1  0.08443930160362355;
Lambda2  -0.04233021339104724;
Lambda3  0.00714051370952697;
Lambda4  -0.000434249518445582;
Lambda5  6.325254718626872e-06;
}
C2H4
{
Lambda1  0.197922832165252;
Lambda2  -0.10341700404687751;
Lambda3  0.019019980912886446;
Lambda4  -0.0014181286600093179;
Lambda5  3.589425608497073e-05;
}
C2H5
{
Lambda1  0.09924660122628728;
Lambda2  -0.047171285793629725;
Lambda3  0.007319285686755931;
Lambda4  -0.0003672617113254694;
Lambda5  1.0076811654120282e-06;
}
C2H6
{
Lambda1  0.12306808397423825;
Lambda2  -0.057890635797519345;
Lambda3  0.008834761975704885;
Lambda4  -0.00042591511834609493;
Lambda5  -4.768960986769314e-09;
}
HCCO
{
Lambda1  -0.03626231441966058;
Lambda2  0.02084373211964523;
Lambda3  -0.004970305665228798;
Lambda4  0.0005951308051987718;
Lambda5  -2.6184292773699343e-05;
}
CH2CO
{
Lambda1  0.0407148601869982;
Lambda2  -0.01858670912948045;
Lambda3  0.002553916897336059;
Lambda4  -6.732458891403167e-05;
Lambda5  -4.1070494519303934e-06;
}
HCCOH
{
Lambda1  -0.05404791866165115;
Lambda2  0.03664740563207126;
Lambda3  -0.009414624221333247;
Lambda4  0.001076766805602849;
Lambda5  -4.4817603351747945e-05;
}
C2O
{
Lambda1  -0.006700259539236703;
Lambda2  0.004702525598094421;
Lambda3  -0.0013767339598651338;
Lambda4  0.00019232843114620383;
Lambda5  -9.288354459863974e-06;
}
CH2CHO
{
Lambda1  0.09916802569555978;
Lambda2  -0.0512374292181432;
Lambda3  0.009200465614604001;
Lambda4  -0.0006516954630359922;
Lambda5  1.4801236724933365e-05;
}
CH3CHO
{
Lambda1  0.11886735354256238;
Lambda2  -0.05837969796102084;
Lambda3  0.00975730115301011;
Lambda4  -0.0006087338991910133;
Lambda5  1.004244807744854e-05;
}
CH3CO
{
Lambda1  0.1646653249984064;
Lambda2  -0.0900280264436267;
Lambda3  0.017813444110369545;
Lambda4  -0.0015008534068767304;
Lambda5  4.603909300518797e-05;
}
C3H2
{
Lambda1  -0.01346702803255843;
Lambda2  0.007950495831853435;
Lambda3  -0.002061966886022648;
Lambda4  0.00026549340409172395;
Lambda5  -1.1961958700043292e-05;
}
C3H3
{
Lambda1  -0.014872318322735792;
Lambda2  0.012152959826163958;
Lambda3  -0.0037700861264085735;
Lambda4  0.0005092722651820247;
Lambda5  -2.3686158889874236e-05;
}
pC3H4
{
Lambda1  0.034934449161251185;
Lambda2  -0.015107199563317112;
Lambda3  0.001735162436254365;
Lambda4  2.0645352284216477e-05;
Lambda5  -7.563894528807933e-06;
}
aC3H4
{
Lambda1  0.06680018851377073;
Lambda2  -0.034993480915181285;
Lambda3  0.006318603639939326;
Lambda4  -0.00044242388570671614;
Lambda5  9.767234407976014e-06;
}
cC3H4
{
Lambda1  0.1186000309236307;
Lambda2  -0.06691811977176262;
Lambda3  0.013599199166046145;
Lambda4  -0.0011723795221853701;
Lambda5  3.6963452990915325e-05;
}
aC3H5
{
Lambda1  0.11513524737026776;
Lambda2  -0.060930709177355304;
Lambda3  0.01125339670359125;
Lambda4  -0.0008317644633715264;
Lambda5  2.064394380445109e-05;
}
CH3CCH2
{
Lambda1  0.0932835214757766;
Lambda2  -0.04455031722323382;
Lambda3  0.006890507527122331;
Lambda4  -0.00033483790605199433;
Lambda5  2.9176034459558427e-08;
}
CH3CHCH
{
Lambda1  0.08889511778390173;
Lambda2  -0.04287914837771892;
Lambda3  0.0067165748536789785;
Lambda4  -0.00033588363819864864;
Lambda5  6.848582458357919e-07;
}
C3H6
{
Lambda1  0.14286514475457848;
Lambda2  -0.07253911936590135;
Lambda3  0.012703690919388326;
Lambda4  -0.0008641197953209701;
Lambda5  1.816429564253565e-05;
}
C2H3CHO
{
Lambda1  0.11942990849031915;
Lambda2  -0.06422359871690843;
Lambda3  0.012401742376715772;
Lambda4  -0.0010082528122852985;
Lambda5  2.9456411818625137e-05;
}
nC3H7
{
Lambda1  0.10388352004381482;
Lambda2  -0.05302209483373647;
Lambda3  0.00930349822097478;
Lambda4  -0.0006302164443858487;
Lambda5  1.3097899039900879e-05;
}
iC3H7
{
Lambda1  0.11669460493617301;
Lambda2  -0.05815463533080357;
Lambda3  0.00989722448626869;
Lambda4  -0.0006377595800282954;
Lambda5  1.1657272605260545e-05;
}
C3H8
{
Lambda1  0.12149173512269881;
Lambda2  -0.06087496439659974;
Lambda3  0.010408049632412906;
Lambda4  -0.0006733486650175696;
Lambda5  1.2413062937571409e-05;
}
A1
{
Lambda1  0.0990198917616678;
Lambda2  -0.05092058150097941;
Lambda3  0.009072024263698129;
Lambda4  -0.0006365586519059415;
Lambda5  1.415634166548181e-05;
}
A1-
{
Lambda1  0.10406239768608785;
Lambda2  -0.05493875126426773;
Lambda3  0.010221114911482483;
Lambda4  -0.0007763562559548472;
Lambda5  2.0208349655422655e-05;
}
N2
{
Lambda1  -0.02161326479517225;
Lambda2  0.01615234209353248;
Lambda3  -0.004250819667144769;
Lambda4  0.000489368488268477;
Lambda5  -2.0318035158632357e-05;
}
