/*--------------------------------*- C++ -*----------------------------------*\
  =========                 |
  \\      /  F ield         | OpenFOAM: The Open Source CFD Toolbox
   \\    /   O peration     | Website:  https://openfoam.org
    \\  /    A nd           | Version:  10
     \\/     M anipulation  |
\*---------------------------------------------------------------------------*/
FoamFile
{
    version     2.0;
    format      ascii;
    class       dictionary;
    location    "constant";
    object      chemistryProperties;
}
// * * * * * * * * * * * * * * * * * * * * * * * * * * * * * * * * * * * * * //

chemistryType
{
    solver          EulerImplicit;
    //chemistrySolver   ode;
    //chemistryThermo   psi;
}

chemistry       on;

initialChemicalTimeStep 1e-08;

EulerImplicitCoeffs
{
    cTauChem        1;
    equilibriumRateLimiter off;
}

odeCoeffs
{
    solver          RKCK45;
    absTol          1e-12;
    relTol          1e-1;
}

#include "reactions"

// ************************************************************************* //

differentialDiffusion on;
thermalDiffusion off;

Prt  Prt [0 0 0 0 0] 0.0;
Sct  Sct [0 0 0 0 0] 0.0;
