! generator: yaml2ck
! cantera-version: 3.0.0
! date: Sun, 29 Sep 2024 15:06:30 -0500
! input-files: ['uiuc_7sp.yaml']
!
! Modified version of UIUC-XPACC mechanism

ELEM
O H C N
END

SPECIES
C2H4  O2  CO2  CO  H2O  H2  N2
END

THERMO ALL
200.000   1000.000  5000.000

C2H4                    C   2H   4          G200.000   3500.000  1000.000      1
 2.03611116E+00 1.46454151E-02-6.71077915E-06 1.47222923E-09-1.25706061E-13    2
 4.93988614E+03 1.03053693E+01 3.95920148E+00-7.57052247E-03 5.70990292E-05    3
-6.91588753E-08 2.69884373E-11 5.08977593E+03 4.09733096E+00                   4
O2                      O   2               G200.000   3500.000  1000.000      1
 3.28253784E+00 1.48308754E-03-7.57966669E-07 2.09470555E-10-2.16717794E-14    2
-1.08845772E+03 5.45323129E+00 3.78245636E+00-2.99673416E-03 9.84730201E-06    3
-9.68129509E-09 3.24372837E-12-1.06394356E+03 3.65767573E+00                   4
CO2                     C   1O   2          G200.000   3500.000  1000.000      1
 3.85746029E+00 4.41437026E-03-2.21481404E-06 5.23490188E-10-4.72084164E-14    2
-4.87591660E+04 2.27163806E+00 2.35677352E+00 8.98459677E-03-7.12356269E-06    3
 2.45919022E-09-1.43699548E-13-4.83719697E+04 9.90105222E+00                   4
CO                      C   1O   1          G200.000   3500.000  1000.000      1
 2.71518561E+00 2.06252743E-03-9.98825771E-07 2.30053008E-10-2.03647716E-14    2
-1.41518724E+04 7.81868772E+00 3.57953347E+00-6.10353680E-04 1.01681433E-06    3
 9.07005884E-10-9.04424499E-13-1.43440860E+04 3.50840928E+00                   4
H2O                     H   2O   1          G200.000   3500.000  1000.000      1
 3.03399249E+00 2.17691804E-03-1.64072518E-07-9.70419870E-11 1.68200992E-14    2
-3.00042971E+04 4.96677010E+00 4.19864056E+00-2.03643410E-03 6.52040211E-06    3
-5.48797062E-09 1.77197817E-12-3.02937267E+04-8.49032208E-01                   4
H2                      H   2               G300.000   5000.000  1000.000      1
 3.33727920E+00-4.94024731E-05 4.99456778E-07-1.79566394E-10 2.00255376E-14    2
-9.50158922E+02-3.20502331E+00 2.34433112E+00 7.98052075E-03-1.94781510E-05    3
 2.01572094E-08-7.37611761E-12-9.17935173E+02 6.83010238E-01                   4
N2                      N   2               G300.000   5000.000  1000.000      1
 2.92664000E+00 1.48797680E-03-5.68476000E-07 1.00970380E-10-6.75335100E-15    2
-9.22797700E+02 5.98052800E+00 3.29867700E+00 1.40824040E-03-3.96322200E-06    3
 5.64151500E-09-2.44485400E-12-1.02089990E+03 3.95037200E+00                   4
END

REACTIONS CAL/MOLE MOLE
C2H4 + O2 => 2 CO + 2 H2 9999999999.999992 0.0 36000.0
FORD /C2H4 0.500/
FORD /O2 0.650/
CO + 0.5 O2 <=> CO2      11000000.0 0.7 11000.0
H2 + 0.5 O2 => H2O       700000000.0 0.0 12000.0
FORD /H2 0.750/
FORD /O2 0.500/
END



TRANSPORT
C2H4               2   280.800     3.971     0.000     0.000     1.500
O2                 1   107.400     3.458     0.000     1.600     3.800
CO2                1   244.000     3.763     0.000     2.650     2.100
CO                 1    98.100     3.650     0.000     1.950     1.800
H2O                2   572.400     2.605     1.844     0.000     4.000
H2                 1    38.000     2.920     0.000     0.790   280.000
N2                 1    97.530     3.621     0.000     1.760     4.000
END