! generator: yaml2ck
! cantera-version: 3.0.0
! date: Wed, 21 Aug 2024 12:57:35 -0500
! input-files: ['uiuc_20sp.yaml']
!
! "an optimized reaction model of H2/CO combustion  http://ignis.usc.edu/Mechanisms/H2-CO/mech.txt"

ELEM
O H C N
END

SPECIES
C2H4  H2  H  O2  O  H2O  CO  CO2  OH  HCO  HO2  H2O2  C2H3  C2H2  CH4  CH3  CH2
CH2O  CH2CHO  N2
END

THERMO ALL
200.000   1000.000  6000.000

C2H4                    C   2H   4          G300.000   5000.000  1000.000      1
 2.03611116E+00 1.46454151E-02-6.71077915E-06 1.47222923E-09-1.25706061E-13    2
 4.93988614E+03 1.03053693E+01 3.95920148E+00-7.57052247E-03 5.70990292E-05    3
-6.91588753E-08 2.69884373E-11 5.08977593E+03 4.09733096E+00                   4
H2                      H   2               G200.000   3500.000  1000.000      1
 3.33727920E+00-4.94024731E-05 4.99456778E-07-1.79566394E-10 2.00255376E-14    2
-9.50158922E+02-3.20502331E+00 2.34433112E+00 7.98052075E-03-1.94781510E-05    3
 2.01572094E-08-7.37611761E-12-9.17935173E+02 6.83010238E-01                   4
H                       H   1               G200.000   3500.000  1000.000      1
 2.50000001E+00-2.30842973E-11 1.61561948E-14-4.73515235E-18 4.98197357E-22    2
 2.54736599E+04-4.46682914E-01 2.50000000E+00 7.05332819E-13-1.99591964E-15    3
 2.30081632E-18-9.27732332E-22 2.54736599E+04-4.46682853E-01                   4
O2                      O   2               G200.000   3500.000  1000.000      1
 3.28253784E+00 1.48308754E-03-7.57966669E-07 2.09470555E-10-2.16717794E-14    2
-1.08845772E+03 5.45323129E+00 3.78245636E+00-2.99673416E-03 9.84730201E-06    3
-9.68129509E-09 3.24372837E-12-1.06394356E+03 3.65767573E+00                   4
O                       O   1               G200.000   3500.000  1000.000      1
 2.56942078E+00-8.59741137E-05 4.19484589E-08-1.00177799E-11 1.22833691E-15    2
 2.92175791E+04 4.78433864E+00 3.16826710E+00-3.27931884E-03 6.64306396E-06    3
-6.12806624E-09 2.11265971E-12 2.91222592E+04 2.05193346E+00                   4
H2O                     H   2O   1          G200.000   3500.000  1000.000      1
 3.03399249E+00 2.17691804E-03-1.64072518E-07-9.70419870E-11 1.68200992E-14    2
-3.00042971E+04 4.96677010E+00 4.19864056E+00-2.03643410E-03 6.52040211E-06    3
-5.48797062E-09 1.77197817E-12-3.02937267E+04-8.49032208E-01                   4
CO                      C   1O   1          G200.000   3500.000  1000.000      1
 2.71518561E+00 2.06252743E-03-9.98825771E-07 2.30053008E-10-2.03647716E-14    2
-1.41518724E+04 7.81868772E+00 3.57953347E+00-6.10353680E-04 1.01681433E-06    3
 9.07005884E-10-9.04424499E-13-1.43440860E+04 3.50840928E+00                   4
CO2                     C   1O   2          G200.000   3500.000  1000.000      1
 3.85746029E+00 4.41437026E-03-2.21481404E-06 5.23490188E-10-4.72084164E-14    2
-4.87591660E+04 2.27163806E+00 2.35677352E+00 8.98459677E-03-7.12356269E-06    3
 2.45919022E-09-1.43699548E-13-4.83719697E+04 9.90105222E+00                   4
OH                      H   1O   1          G200.000   6000.000  1000.000      1
 2.86472886E+00 1.05650448E-03-2.59082758E-07 3.05218674E-11-1.33195876E-15    2
 3.71885774E+03 5.70164073E+00 4.12530561E+00-3.22544939E-03 6.52764691E-06    3
-5.79853643E-09 2.06237379E-12 3.38153812E+03-6.90432960E-01                   4
HCO                     C   1H   1O   1     G300.000   5000.000  1000.000      1
 2.77217438E+00 4.95695526E-03-2.48445613E-06 5.89161778E-10-5.33508711E-14    2
 4.01191815E+03 9.79834492E+00 4.22118584E+00-3.24392532E-03 1.37799446E-05    3
-1.33144093E-08 4.33768865E-12 3.83956496E+03 3.39437243E+00                   4
HO2                     H   1O   2          G200.000   3500.000  1000.000      1
 4.01721090E+00 2.23982013E-03-6.33658150E-07 1.14246370E-10-1.07908535E-14    2
 1.11856713E+02 3.78510215E+00 4.30179801E+00-4.74912051E-03 2.11582891E-05    3
-2.42763894E-08 9.29225124E-12 2.94808040E+02 3.71666245E+00                   4
H2O2                    H   2O   2          G200.000   3500.000  1000.000      1
 4.16500285E+00 4.90831694E-03-1.90139225E-06 3.71185986E-10-2.87908305E-14    2
-1.78617877E+04 2.91615662E+00 4.27611269E+00-5.42822417E-04 1.67335701E-05    3
-2.15770813E-08 8.62454363E-12-1.77025821E+04 3.43505074E+00                   4
C2H3                    C   2H   3          G300.000   5000.000  1000.000      1
 3.01672400E+00 1.03302292E-02-4.68082349E-06 1.01763288E-09-8.62607041E-14    2
 3.46128739E+04 7.78732378E+00 3.21246645E+00 1.51479162E-03 2.59209412E-05    3
-3.57657847E-08 1.47150873E-11 3.48598468E+04 8.51054025E+00                   4
C2H2                    C   2H   2          G300.000   5000.000  1000.000      1
 4.14756964E+00 5.96166664E-03-2.37294852E-06 4.67412171E-10-3.61235213E-14    2
 2.59359992E+04-1.23028121E+00 8.08681094E-01 2.33615629E-02-3.55171815E-05    3
 2.80152437E-08-8.50072974E-12 2.64289807E+04 1.39397051E+01                   4
CH4                     C   1H   4          G300.000   5000.000  1000.000      1
 7.48514950E-02 1.33909467E-02-5.73285809E-06 1.22292535E-09-1.01815230E-13    2
-9.46834459E+03 1.84373180E+01 5.14987613E+00-1.36709788E-02 4.91800599E-05    3
-4.84743026E-08 1.66693956E-11-1.02466476E+04-4.64130376E+00                   4
CH3                     C   1H   3          G300.000   5000.000  1000.000      1
 2.28571772E+00 7.23990037E-03-2.98714348E-06 5.95684644E-10-4.67154394E-14    2
 1.67755843E+04 8.48007179E+00 3.67359040E+00 2.01095175E-03 5.73021856E-06    3
-6.87117425E-09 2.54385734E-12 1.64449988E+04 1.60456433E+00                   4
CH2                     C   1H   2          G200.000   5000.000  1000.000      1
 2.87410113E+00 3.65639292E-03-1.40894597E-06 2.60179549E-10-1.87727567E-14    2
 4.62636040E+04 6.17119324E+00 3.76267867E+00 9.68872143E-04 2.79489841E-06    3
-3.85091153E-09 1.68741719E-12 4.60040401E+04 1.56253185E+00                   4
CH2O                    C   1H   2O   1     G300.000   5000.000  1000.000      1
 1.76069008E+00 9.20000082E-03-4.42258813E-06 1.00641212E-09-8.83855640E-14    2
-1.39958323E+04 1.36563230E+01 4.79372315E+00-9.90833369E-03 3.73220008E-05    3
-3.79285261E-08 1.31772652E-11-1.43089567E+04 6.02812900E-01                   4
CH2CHO                  C   2H   3O   1     G300.000   5000.000  1000.000      1
 5.16620060E+00 1.08478260E-02-4.46583680E-06 8.06285480E-10-4.84101930E-14    2
-7.31993470E+02-1.96333610E+00 1.01340010E+00 2.26814670E-02-1.57339440E-05    3
 4.04915030E-09 2.95990120E-13 3.80428530E+02 1.93565520E+01                   4
N2                      N   2               G300.000   5000.000  1000.000      1
 2.92664000E+00 1.48797680E-03-5.68476000E-07 1.00970380E-10-6.75335100E-15    2
-9.22797700E+02 5.98052800E+00 3.29867700E+00 1.40824040E-03-3.96322200E-06    3
 5.64151500E-09-2.44485400E-12-1.02089990E+03 3.95037200E+00                   4
END

REACTIONS CAL/MOLE MOLE
H + O2 <=> O + OH              3.1440000000000004e+16 -0.6707 17041.0
H2 + O <=> H + OH              45890.00000000001 2.7 6260.0
H2 + OH <=> H + H2O            173400000.00000003 1.51 3430.0
2 OH <=> H2O + O               39730.000000000015 2.4 -2110.0
H + OH + M <=> H2O + M         4.400000000000001e+22 -2.0 0.0
CO/1.750E+00/ CO2/3.600E+00/ H2/2.000E+00/ H2O/6.300E+00/
H + O + M <=> OH + M           9.428000000000002e+18 -1.0 0.0
CO/1.750E+00/ CO2/3.600E+00/ H2/2.000E+00/ H2O/1.200E+01/
2 O + M <=> O2 + M             1.2000000000000002e+17 -1.0 0.0
CO/1.750E+00/ CO2/3.600E+00/ H2/2.400E+00/ H2O/1.540E+01/
H + O2 + M <=> HO2 + M         2.8000000000000005e+18 -0.86 0.0
C2H2/3.000E+00/ C2H3/3.000E+00/ C2H4/3.000E+00/ CO/7.500E-01/ CO2/1.500E+00/ H2O/0.000E+00/ N2/0.000E+00/ O2/0.000E+00/
H + O2 + O2 <=> HO2 + O2       3.0000000000000007e+20 -1.72 0.0
H + O2 + H2O <=> HO2 + H2O     1.6520000000000004e+19 -0.76 0.0
H + O2 + N2 <=> HO2 + N2       2.6000000000000004e+19 -1.24 0.0
H2 + O2 <=> H + HO2            591600.0000000001 2.433 53502.0
H + HO2 <=> H2O + O            3970000000000.0005 0.0 671.0
H + HO2 <=> 2 OH               74850000000000.02 0.0 295.0
HO2 + O <=> O2 + OH            40000000000000.01 0.0 0.0
HO2 + OH <=> H2O + O2          46400000000000.01 0.0 -500.0
CO + HO2 <=> CO2 + OH          30100000000000.004 0.0 23000.0
CO + OH <=> CO2 + H            47600000.00000001 1.228 70.0
CO + O2 <=> CO2 + O            1119000000000.0002 0.0 47700.0
CO + O + M <=> CO2 + M         13620000000.000002 0.0 2384.0
CO/1.750E+00/ CO2/3.600E+00/ H2/2.000E+00/ H2O/1.200E+01/
H + HCO <=> CO + H2            73400000000000.02 0.0 0.0
HCO + O <=> CO + OH            30000000000000.004 0.0 0.0
HCO + O <=> CO2 + H            30000000000000.004 0.0 0.0
HCO + OH <=> CO + H2O          50000000000000.01 0.0 0.0
HCO + M <=> CO + H + M         1.8700000000000003e+17 -1.0 17000.0
C2H2/3.000E+00/ C2H3/3.000E+00/ C2H4/3.000E+00/ CO/1.500E+00/ CO2/2.000E+00/ H2/2.000E+00/ H2O/6.000E+00/
HCO + O2 <=> CO + HO2          7600000000000.001 0.0 400.0
CH2 + H + M <=> CH3 + M        2.5000000000000004e+16 -0.8 0.0
C2H2/3.000E+00/ C2H3/3.000E+00/ C2H4/3.000E+00/ CO/1.500E+00/ CO2/2.000E+00/ H2/2.000E+00/ H2O/6.000E+00/
CH2 + H2 <=> CH3 + H           500000.0000000001 2.0 7230.0
CH2 + O <=> H + HCO            80000000000000.02 0.0 0.0
CH2 + O2 <=> HCO + OH          10560000000000.002 0.0 1500.0
CH2 + O2 <=> CO2 + 2 H         2640000000000.0005 0.0 1500.0
CH2 + OH <=> CH2O + H          20000000000000.004 0.0 0.0
CH2 + HO2 <=> CH2O + OH        20000000000000.004 0.0 0.0
CH2O + H <=> H2 + HCO          23000000000.000004 1.05 3275.0
CH2O + O <=> HCO + OH          39000000000000.01 0.0 3540.0
CH2O + OH <=> H2O + HCO        3430000000.0000005 1.18 -447.0
CH3 + O <=> CH2O + H           84300000000000.02 0.0 0.0
CH3 + OH <=> CH2 + H2O         56000000.00000001 1.6 5420.0
CH3 + O2 <=> CH2O + OH         36000000000.00001 0.0 8940.0
CH2 + CH3 <=> C2H4 + H         40000000000000.01 0.0 0.0
C2H2 + O <=> CH2 + CO          4080000.000000001 2.0 1900.0
C2H2 + HCO <=> C2H3 + CO       10000000.000000002 2.0 6000.0
C2H3 + H + M <=> C2H4 + M      6080000000000.001 0.27 280.0
C2H2/3.000E+00/ C2H3/3.000E+00/ C2H4/3.000E+00/ CO/1.500E+00/ CO2/2.000E+00/ H2/2.000E+00/ H2O/6.000E+00/
C2H3 + H <=> C2H2 + H2         30000000000000.004 0.0 0.0
C2H3 + OH <=> C2H2 + H2O       30110000000000.004 0.0 0.0
C2H3 + O2 <=> C2H2 + HO2       1340000.0000000002 1.61 -383.4
C2H3 + O2 <=> CH2O + HCO       4.600000000000001e+16 -1.39 1010.0
C2H3 + O2 <=> CH2CHO + O       300000000000.00006 0.29 11.0
C2H3 + HO2 <=> CH2CHO + OH     10000000000000.002 0.0 0.0
CH2CHO <=> CH3 + CO            7.8e+41 -9.147 46900.0
CH2CHO + H <=> CH3 + HCO       90000000000000.02 0.0 0.0
CH2CHO + O2 <=> CH2O + CO + OH 18000000000.000004 0.0 0.0
C2H4 + H <=> C2H3 + H2         50700000.00000001 1.93 12950.0
C2H4 + O <=> C2H3 + OH         15100000.000000004 1.91 3740.0
C2H4 + O <=> CH2 + CH2O        384000.00000000006 1.83 220.0
C2H4 + OH <=> C2H3 + H2O       3600000.0000000005 2.0 2500.0
C2H4 + O2 <=> C2H3 + HO2       42200000000000.01 0.0 60800.0
2 OH (+M) <=> H2O2 (+M)        74000000000000.02 -0.37 0.0
LOW /2.3000000000000005e+18 -0.9 -1700.0/
TROE /0.7346 94 1756 5182/
C2H2/3.000E+00/ C2H4/3.000E+00/ CH4/2.000E+00/ CO/1.500E+00/ CO2/2.000E+00/ H2/2.000E+00/ H2O/6.000E+00/
2 HO2 <=> H2O2 + O2            130000000000.00002 0.0 -1630.0
DUPLICATE
2 HO2 <=> H2O2 + O2            420000000000000.06 0.0 12000.0
DUPLICATE
H + H2O2 <=> H2 + HO2          12100000.000000002 2.0 5200.0
H + H2O2 <=> H2O + OH          10000000000000.002 0.0 3600.0
H2O2 + O <=> HO2 + OH          9630000.0 2.0 4000.0
H2O2 + OH <=> H2O + HO2        1750000000000.0002 0.0 320.0
DUPLICATE
H2O2 + OH <=> H2O + HO2        580000000000000.1 0.0 9560.0
DUPLICATE
CH2O + HO2 <=> H2O2 + HCO      1000000000000.0001 0.0 8000.0
CH3 + H2O2 <=> CH4 + HO2       24500.000000000004 2.47 5180.0
C2H3 + H2O2 <=> C2H4 + HO2     12100000000.000002 0.0 -596.0
CH3 + H (+M) <=> CH4 (+M)      1.2700000000000002e+16 -0.63 383.0
LOW /2.4770000000000002e+33 -4.76 2440.0/
TROE /0.783 74 2941 6964/
C2H2/3.000E+00/ C2H4/3.000E+00/ CH4/2.000E+00/ CO/1.500E+00/ CO2/2.000E+00/ H2/2.000E+00/ H2O/6.000E+00/
CH3 + HO2 <=> CH4 + O2         1000000000000.0001 0.0 0.0
CH3 + HCO <=> CH4 + CO         8480000000000.002 0.0 0.0
CH2O + CH3 <=> CH4 + HCO       3320.0000000000005 2.81 5860.0
CH4 + H <=> CH3 + H2           660000000.0000001 1.62 10840.0
CH4 + O <=> CH3 + OH           1020000000.0000001 1.5 8600.0
CH4 + OH <=> CH3 + H2O         100000000.00000001 1.6 3120.0
CH2 + CH4 <=> 2 CH3            2460000.0000000005 2.0 8270.0
C2H3 + CH3 <=> C2H2 + CH4      392000000000.00006 0.0 0.0
C2H4 + CH3 <=> C2H3 + CH4      227000.00000000003 2.0 9200.0
END



TRANSPORT
C2H4               2   238.400     3.496     0.000     0.000     1.500
H2                 1    38.000     2.920     0.000     0.790   280.000
H                  0   145.000     2.050     0.000     0.000     0.000
O2                 1   107.400     3.458     0.000     1.600     3.800
O                  0    80.000     2.750     0.000     0.000     0.000
H2O                2   572.400     2.605     1.844     0.000     4.000
CO                 1    98.100     3.650     0.000     1.950     1.800
CO2                1   244.000     3.763     0.000     2.650     2.100
OH                 1    80.000     2.750     0.000     0.000     0.000
HCO                2   498.000     3.590     0.000     0.000     0.000
HO2                2   107.400     3.458     0.000     0.000     1.000
H2O2               2   107.400     3.458     0.000     0.000     3.800
C2H3               2   265.300     3.721     0.000     0.000     1.000
C2H2               1   265.300     3.721     0.000     0.000     2.500
CH4                2   141.400     3.746     0.000     2.600    13.000
CH3                1   144.000     3.800     0.000     0.000     0.000
CH2                1   144.000     3.800     0.000     0.000     0.000
CH2O               2   498.000     3.590     0.000     0.000     2.000
CH2CHO             2   436.000     3.970     0.000     0.000     2.000
N2                 1    97.530     3.621     0.000     1.760     4.000
END